/*---------------------------------------------------------------------------*\
| =========                 |                                                 |
| \\      /  F ield         | OpenFOAM: The Open Source CFD Toolbox           |
|  \\    /   O peration     | Version:  v2012                                 |
|   \\  /    A nd           | Website:  www.openfoam.com                      |
|    \\/     M anipulation  |                                                 |
\*---------------------------------------------------------------------------*/
Build  : _7bdb509494-20201222 OPENFOAM=2012
Arch   : "LSB;label=32;scalar=64"
Exec   : simpleFoam
Date   : Mar 23 2023
Time   : 10:10:38
Host   : LAPTOP-JRUSJ8J9
PID    : 2100
I/O    : uncollated
Case   : /home/valtt/OpenFOAM/valtt-v2012/run/stokes
nProcs : 1
trapFpe: Floating point exception trapping enabled (FOAM_SIGFPE).
fileModificationChecking : Monitoring run-time modified files using timeStampMaster (fileModificationSkew 5, maxFileModificationPolls 20)
allowSystemOperations : Allowing user-supplied system call operations

// * * * * * * * * * * * * * * * * * * * * * * * * * * * * * * * * * * * * * //
Create time

Create mesh for time = 0


SIMPLE: convergence criteria
    field p	 tolerance 1e-05
    field U	 tolerance 1e-05

Reading field p

Reading field U

Reading/calculating face flux field phi

Selecting incompressible transport model Newtonian
Selecting turbulence model type laminar
Selecting laminar stress model Stokes
No MRF models present

No finite volume options present

Starting time loop

Sampled surface:
    normal -> raw

Time = 1

smoothSolver:  Solving for Ux, Initial residual = 1, Final residual = 0.029507, No Iterations 4
smoothSolver:  Solving for Uy, Initial residual = 0.999999, Final residual = 0.0857898, No Iterations 2
GAMG:  Solving for p, Initial residual = 1, Final residual = 0.0583832, No Iterations 4
time step continuity errors : sum local = 0.000694786, global = -1.53207e-18, cumulative = -1.53207e-18
ExecutionTime = 0.1 s  ClockTime = 0 s

Time = 2

smoothSolver:  Solving for Ux, Initial residual = 0.236789, Final residual = 0.0125542, No Iterations 4
smoothSolver:  Solving for Uy, Initial residual = 0.596313, Final residual = 0.0458315, No Iterations 4
GAMG:  Solving for p, Initial residual = 0.631814, Final residual = 0.0449342, No Iterations 3
time step continuity errors : sum local = 0.000882821, global = 1.08632e-18, cumulative = -4.45751e-19
ExecutionTime = 0.12 s  ClockTime = 0 s

Time = 3

smoothSolver:  Solving for Ux, Initial residual = 0.162785, Final residual = 0.0106964, No Iterations 4
smoothSolver:  Solving for Uy, Initial residual = 0.33524, Final residual = 0.0259149, No Iterations 4
GAMG:  Solving for p, Initial residual = 0.537968, Final residual = 0.0518539, No Iterations 2
time step continuity errors : sum local = 0.00135164, global = -4.05305e-18, cumulative = -4.4988e-18
ExecutionTime = 0.13 s  ClockTime = 0 s

Time = 4

smoothSolver:  Solving for Ux, Initial residual = 0.104229, Final residual = 0.00718893, No Iterations 4
smoothSolver:  Solving for Uy, Initial residual = 0.166569, Final residual = 0.0130431, No Iterations 4
GAMG:  Solving for p, Initial residual = 0.451519, Final residual = 0.0182528, No Iterations 3
time step continuity errors : sum local = 0.000631604, global = -2.72215e-18, cumulative = -7.22096e-18
ExecutionTime = 0.13 s  ClockTime = 0 s

Time = 5

smoothSolver:  Solving for Ux, Initial residual = 0.0475237, Final residual = 0.00304245, No Iterations 4
smoothSolver:  Solving for Uy, Initial residual = 0.0429714, Final residual = 0.00309676, No Iterations 4
GAMG:  Solving for p, Initial residual = 0.287359, Final residual = 0.0257313, No Iterations 3
time step continuity errors : sum local = 0.000833054, global = -5.06208e-18, cumulative = -1.2283e-17
ExecutionTime = 0.15 s  ClockTime = 0 s

Time = 6

smoothSolver:  Solving for Ux, Initial residual = 0.0390121, Final residual = 0.002667, No Iterations 4
smoothSolver:  Solving for Uy, Initial residual = 0.0233633, Final residual = 0.00150626, No Iterations 4
GAMG:  Solving for p, Initial residual = 0.271379, Final residual = 0.0179585, No Iterations 2
time step continuity errors : sum local = 0.0004998, global = -2.34787e-18, cumulative = -1.46309e-17
ExecutionTime = 0.15 s  ClockTime = 0 s

Time = 7

smoothSolver:  Solving for Ux, Initial residual = 0.0257874, Final residual = 0.00176006, No Iterations 4
smoothSolver:  Solving for Uy, Initial residual = 0.0105483, Final residual = 0.000619748, No Iterations 4
GAMG:  Solving for p, Initial residual = 0.262385, Final residual = 0.00959754, No Iterations 3
time step continuity errors : sum local = 0.00027742, global = 4.93476e-18, cumulative = -9.69615e-18
ExecutionTime = 0.16 s  ClockTime = 0 s

Time = 8

smoothSolver:  Solving for Ux, Initial residual = 0.0320757, Final residual = 0.0023953, No Iterations 4
smoothSolver:  Solving for Uy, Initial residual = 0.0529497, Final residual = 0.00423872, No Iterations 4
GAMG:  Solving for p, Initial residual = 0.188726, Final residual = 0.0150383, No Iterations 3
time step continuity errors : sum local = 0.00036136, global = -4.05782e-18, cumulative = -1.3754e-17
ExecutionTime = 0.18 s  ClockTime = 0 s

Time = 9

smoothSolver:  Solving for Ux, Initial residual = 0.0349336, Final residual = 0.00270334, No Iterations 4
smoothSolver:  Solving for Uy, Initial residual = 0.0666805, Final residual = 0.00534767, No Iterations 4
GAMG:  Solving for p, Initial residual = 0.169984, Final residual = 0.012318, No Iterations 2
time step continuity errors : sum local = 0.000331097, global = 6.65713e-18, cumulative = -7.09683e-18
ExecutionTime = 0.18 s  ClockTime = 0 s

Time = 10

smoothSolver:  Solving for Ux, Initial residual = 0.0284113, Final residual = 0.0021963, No Iterations 4
smoothSolver:  Solving for Uy, Initial residual = 0.0470438, Final residual = 0.00381244, No Iterations 4
GAMG:  Solving for p, Initial residual = 0.153559, Final residual = 0.00509012, No Iterations 3
time step continuity errors : sum local = 0.000140042, global = -9.62574e-19, cumulative = -8.05941e-18
ExecutionTime = 0.19 s  ClockTime = 0 s

Time = 11

smoothSolver:  Solving for Ux, Initial residual = 0.0186946, Final residual = 0.00140317, No Iterations 4
smoothSolver:  Solving for Uy, Initial residual = 0.0200553, Final residual = 0.00157413, No Iterations 4
GAMG:  Solving for p, Initial residual = 0.106599, Final residual = 0.00670391, No Iterations 3
time step continuity errors : sum local = 0.000183492, global = 1.01745e-17, cumulative = 2.11505e-18
ExecutionTime = 0.19 s  ClockTime = 0 s

Time = 12

smoothSolver:  Solving for Ux, Initial residual = 0.0143861, Final residual = 0.0010696, No Iterations 4
smoothSolver:  Solving for Uy, Initial residual = 0.0101276, Final residual = 0.000734351, No Iterations 4
GAMG:  Solving for p, Initial residual = 0.0891528, Final residual = 0.00600109, No Iterations 2
time step continuity errors : sum local = 0.000166367, global = -5.37919e-18, cumulative = -3.26414e-18
ExecutionTime = 0.21 s  ClockTime = 0 s

Time = 13

smoothSolver:  Solving for Ux, Initial residual = 0.014123, Final residual = 0.00107473, No Iterations 4
smoothSolver:  Solving for Uy, Initial residual = 0.0122226, Final residual = 0.000977603, No Iterations 4
GAMG:  Solving for p, Initial residual = 0.0922222, Final residual = 0.00265207, No Iterations 3
time step continuity errors : sum local = 7.15e-05, global = -7.82063e-18, cumulative = -1.10848e-17
ExecutionTime = 0.22 s  ClockTime = 0 s

Time = 14

smoothSolver:  Solving for Ux, Initial residual = 0.0163239, Final residual = 0.00127932, No Iterations 4
smoothSolver:  Solving for Uy, Initial residual = 0.0239906, Final residual = 0.00195831, No Iterations 4
GAMG:  Solving for p, Initial residual = 0.064666, Final residual = 0.00503288, No Iterations 2
time step continuity errors : sum local = 0.000124423, global = 1.0895e-18, cumulative = -9.99527e-18
ExecutionTime = 0.22 s  ClockTime = 0 s

Time = 15

smoothSolver:  Solving for Ux, Initial residual = 0.0166135, Final residual = 0.0013147, No Iterations 4
smoothSolver:  Solving for Uy, Initial residual = 0.0272229, Final residual = 0.00221879, No Iterations 4
GAMG:  Solving for p, Initial residual = 0.0579659, Final residual = 0.00430775, No Iterations 2
time step continuity errors : sum local = 0.000112013, global = 7.88532e-19, cumulative = -9.20674e-18
ExecutionTime = 0.24 s  ClockTime = 0 s

Time = 16

smoothSolver:  Solving for Ux, Initial residual = 0.0145429, Final residual = 0.00114888, No Iterations 4
smoothSolver:  Solving for Uy, Initial residual = 0.0215527, Final residual = 0.00177086, No Iterations 4
GAMG:  Solving for p, Initial residual = 0.0607695, Final residual = 0.00158699, No Iterations 3
time step continuity errors : sum local = 4.68278e-05, global = 5.38557e-18, cumulative = -3.82117e-18
ExecutionTime = 0.24 s  ClockTime = 0 s

Time = 17

smoothSolver:  Solving for Ux, Initial residual = 0.011806, Final residual = 0.000923136, No Iterations 4
smoothSolver:  Solving for Uy, Initial residual = 0.0135884, Final residual = 0.00110787, No Iterations 4
GAMG:  Solving for p, Initial residual = 0.0407064, Final residual = 0.00307863, No Iterations 2
time step continuity errors : sum local = 8.11431e-05, global = -3.0206e-18, cumulative = -6.84177e-18
ExecutionTime = 0.26 s  ClockTime = 0 s

Time = 18

smoothSolver:  Solving for Ux, Initial residual = 0.010479, Final residual = 0.000818718, No Iterations 4
smoothSolver:  Solving for Uy, Initial residual = 0.0104876, Final residual = 0.000847432, No Iterations 4
GAMG:  Solving for p, Initial residual = 0.0312243, Final residual = 0.00199566, No Iterations 2
time step continuity errors : sum local = 5.15663e-05, global = -5.12706e-18, cumulative = -1.19688e-17
ExecutionTime = 0.27 s  ClockTime = 0 s

Time = 19

smoothSolver:  Solving for Ux, Initial residual = 0.0103514, Final residual = 0.000817175, No Iterations 4
smoothSolver:  Solving for Uy, Initial residual = 0.0114185, Final residual = 0.000945024, No Iterations 4
GAMG:  Solving for p, Initial residual = 0.033243, Final residual = 0.00302966, No Iterations 2
time step continuity errors : sum local = 7.37655e-05, global = -1.02294e-17, cumulative = -2.21982e-17
ExecutionTime = 0.27 s  ClockTime = 0 s

Time = 20

smoothSolver:  Solving for Ux, Initial residual = 0.0106951, Final residual = 0.000851847, No Iterations 4
smoothSolver:  Solving for Uy, Initial residual = 0.0142598, Final residual = 0.00117612, No Iterations 4
GAMG:  Solving for p, Initial residual = 0.0254725, Final residual = 0.00136199, No Iterations 2
time step continuity errors : sum local = 3.4935e-05, global = 1.91664e-18, cumulative = -2.02816e-17
ExecutionTime = 0.29 s  ClockTime = 0 s

Time = 21

smoothSolver:  Solving for Ux, Initial residual = 0.0105317, Final residual = 0.000842293, No Iterations 4
smoothSolver:  Solving for Uy, Initial residual = 0.0150251, Final residual = 0.00123781, No Iterations 4
GAMG:  Solving for p, Initial residual = 0.0215957, Final residual = 0.00155112, No Iterations 2
time step continuity errors : sum local = 4.12764e-05, global = 2.70534e-18, cumulative = -1.75762e-17
ExecutionTime = 0.3 s  ClockTime = 0 s

Time = 22

smoothSolver:  Solving for Ux, Initial residual = 0.00969707, Final residual = 0.000775521, No Iterations 4
smoothSolver:  Solving for Uy, Initial residual = 0.0131541, Final residual = 0.00108841, No Iterations 4
GAMG:  Solving for p, Initial residual = 0.0244736, Final residual = 0.00214178, No Iterations 2
time step continuity errors : sum local = 5.60761e-05, global = -6.42647e-18, cumulative = -2.40027e-17
ExecutionTime = 0.3 s  ClockTime = 0 s

Time = 23

smoothSolver:  Solving for Ux, Initial residual = 0.00873495, Final residual = 0.000696138, No Iterations 4
smoothSolver:  Solving for Uy, Initial residual = 0.0106194, Final residual = 0.000879574, No Iterations 4
GAMG:  Solving for p, Initial residual = 0.0174215, Final residual = 0.0011505, No Iterations 2
time step continuity errors : sum local = 3.08472e-05, global = -2.93385e-18, cumulative = -2.69365e-17
ExecutionTime = 0.32 s  ClockTime = 0 s

Time = 24

smoothSolver:  Solving for Ux, Initial residual = 0.00812291, Final residual = 0.000647764, No Iterations 4
smoothSolver:  Solving for Uy, Initial residual = 0.00931664, Final residual = 0.000770748, No Iterations 4
GAMG:  Solving for p, Initial residual = 0.0113476, Final residual = 0.000547767, No Iterations 2
time step continuity errors : sum local = 1.47826e-05, global = 3.47451e-18, cumulative = -2.3462e-17
ExecutionTime = 0.32 s  ClockTime = 0 s

Time = 25

smoothSolver:  Solving for Ux, Initial residual = 0.00792169, Final residual = 0.00063446, No Iterations 4
smoothSolver:  Solving for Uy, Initial residual = 0.00943832, Final residual = 0.000784076, No Iterations 4
GAMG:  Solving for p, Initial residual = 0.0135357, Final residual = 0.000881147, No Iterations 2
time step continuity errors : sum local = 2.23299e-05, global = 5.03282e-19, cumulative = -2.29587e-17
ExecutionTime = 0.34 s  ClockTime = 0 s

Time = 26

smoothSolver:  Solving for Ux, Initial residual = 0.00788343, Final residual = 0.000633993, No Iterations 4
smoothSolver:  Solving for Uy, Initial residual = 0.0101357, Final residual = 0.000840408, No Iterations 4
GAMG:  Solving for p, Initial residual = 0.0111737, Final residual = 0.000500959, No Iterations 2
time step continuity errors : sum local = 1.34779e-05, global = -7.23323e-18, cumulative = -3.0192e-17
ExecutionTime = 0.34 s  ClockTime = 0 s

Time = 27

smoothSolver:  Solving for Ux, Initial residual = 0.00769625, Final residual = 0.000620286, No Iterations 4
smoothSolver:  Solving for Uy, Initial residual = 0.0102131, Final residual = 0.000846377, No Iterations 4
GAMG:  Solving for p, Initial residual = 0.00841791, Final residual = 0.000574096, No Iterations 2
time step continuity errors : sum local = 1.60579e-05, global = 6.87576e-18, cumulative = -2.33162e-17
ExecutionTime = 0.36 s  ClockTime = 0 s

Time = 28

smoothSolver:  Solving for Ux, Initial residual = 0.00730725, Final residual = 0.000588931, No Iterations 4
smoothSolver:  Solving for Uy, Initial residual = 0.00947562, Final residual = 0.000786731, No Iterations 4
GAMG:  Solving for p, Initial residual = 0.0103979, Final residual = 0.000751752, No Iterations 2
time step continuity errors : sum local = 2.08661e-05, global = 2.98566e-18, cumulative = -2.03305e-17
ExecutionTime = 0.37 s  ClockTime = 0 s

Time = 29

smoothSolver:  Solving for Ux, Initial residual = 0.00686727, Final residual = 0.000553199, No Iterations 4
smoothSolver:  Solving for Uy, Initial residual = 0.00850448, Final residual = 0.000707084, No Iterations 4
GAMG:  Solving for p, Initial residual = 0.00764126, Final residual = 0.000522535, No Iterations 3
time step continuity errors : sum local = 1.37057e-05, global = -3.47628e-18, cumulative = -2.38068e-17
ExecutionTime = 0.37 s  ClockTime = 0 s

Time = 30

smoothSolver:  Solving for Ux, Initial residual = 0.00654629, Final residual = 0.000527634, No Iterations 4
smoothSolver:  Solving for Uy, Initial residual = 0.00793505, Final residual = 0.000659965, No Iterations 4
GAMG:  Solving for p, Initial residual = 0.00461145, Final residual = 0.000390741, No Iterations 2
time step continuity errors : sum local = 9.8742e-06, global = -8.51434e-18, cumulative = -3.23212e-17
ExecutionTime = 0.39 s  ClockTime = 0 s

Time = 31

smoothSolver:  Solving for Ux, Initial residual = 0.00636127, Final residual = 0.000513672, No Iterations 4
smoothSolver:  Solving for Uy, Initial residual = 0.00782473, Final residual = 0.000650976, No Iterations 4
GAMG:  Solving for p, Initial residual = 0.00621689, Final residual = 0.000300388, No Iterations 2
time step continuity errors : sum local = 7.84224e-06, global = -3.67282e-18, cumulative = -3.5994e-17
ExecutionTime = 0.39 s  ClockTime = 0 s

Time = 32

smoothSolver:  Solving for Ux, Initial residual = 0.00624454, Final residual = 0.000505271, No Iterations 4
smoothSolver:  Solving for Uy, Initial residual = 0.00791944, Final residual = 0.000658325, No Iterations 4
GAMG:  Solving for p, Initial residual = 0.00537703, Final residual = 0.000506366, No Iterations 2
time step continuity errors : sum local = 1.30545e-05, global = -5.63207e-18, cumulative = -4.16261e-17
ExecutionTime = 0.4 s  ClockTime = 0 s

Time = 33

smoothSolver:  Solving for Ux, Initial residual = 0.00608182, Final residual = 0.000492681, No Iterations 4
smoothSolver:  Solving for Uy, Initial residual = 0.00780345, Final residual = 0.000648618, No Iterations 4
GAMG:  Solving for p, Initial residual = 0.00406256, Final residual = 0.0003007, No Iterations 2
time step continuity errors : sum local = 7.90825e-06, global = 3.50612e-18, cumulative = -3.81199e-17
ExecutionTime = 0.4 s  ClockTime = 0 s

Time = 34

smoothSolver:  Solving for Ux, Initial residual = 0.00586837, Final residual = 0.000475555, No Iterations 4
smoothSolver:  Solving for Uy, Initial residual = 0.00745811, Final residual = 0.000620353, No Iterations 4
GAMG:  Solving for p, Initial residual = 0.00480271, Final residual = 0.000374335, No Iterations 3
time step continuity errors : sum local = 9.54806e-06, global = 9.79177e-18, cumulative = -2.83282e-17
ExecutionTime = 0.41 s  ClockTime = 0 s

Time = 35

smoothSolver:  Solving for Ux, Initial residual = 0.00562996, Final residual = 0.000456463, No Iterations 4
smoothSolver:  Solving for Uy, Initial residual = 0.00702962, Final residual = 0.000585232, No Iterations 4
GAMG:  Solving for p, Initial residual = 0.00394357, Final residual = 0.000254847, No Iterations 3
time step continuity errors : sum local = 6.67983e-06, global = 6.04616e-18, cumulative = -2.2282e-17
ExecutionTime = 0.43 s  ClockTime = 0 s

Time = 36

smoothSolver:  Solving for Ux, Initial residual = 0.00542899, Final residual = 0.000440386, No Iterations 4
smoothSolver:  Solving for Uy, Initial residual = 0.0067227, Final residual = 0.000559835, No Iterations 4
GAMG:  Solving for p, Initial residual = 0.00256422, Final residual = 4.75564e-05, No Iterations 3
time step continuity errors : sum local = 1.33896e-06, global = 2.12633e-18, cumulative = -2.01557e-17
ExecutionTime = 0.43 s  ClockTime = 0 s

Time = 37

smoothSolver:  Solving for Ux, Initial residual = 0.00527847, Final residual = 0.000428582, No Iterations 4
smoothSolver:  Solving for Uy, Initial residual = 0.00658182, Final residual = 0.000548061, No Iterations 4
GAMG:  Solving for p, Initial residual = 0.00304112, Final residual = 0.000152137, No Iterations 2
time step continuity errors : sum local = 4.15453e-06, global = 8.39586e-20, cumulative = -2.00717e-17
ExecutionTime = 0.44 s  ClockTime = 0 s

Time = 38

smoothSolver:  Solving for Ux, Initial residual = 0.00515625, Final residual = 0.0004191, No Iterations 4
smoothSolver:  Solving for Uy, Initial residual = 0.00650261, Final residual = 0.000541334, No Iterations 4
GAMG:  Solving for p, Initial residual = 0.00295172, Final residual = 0.000168158, No Iterations 3
time step continuity errors : sum local = 4.1522e-06, global = -6.26887e-18, cumulative = -2.63406e-17
ExecutionTime = 0.46 s  ClockTime = 0 s

Time = 39

smoothSolver:  Solving for Ux, Initial residual = 0.00503154, Final residual = 0.000409289, No Iterations 4
smoothSolver:  Solving for Uy, Initial residual = 0.00637978, Final residual = 0.000531098, No Iterations 4
GAMG:  Solving for p, Initial residual = 0.00230649, Final residual = 0.000189075, No Iterations 2
time step continuity errors : sum local = 4.65919e-06, global = -7.45683e-18, cumulative = -3.37974e-17
ExecutionTime = 0.46 s  ClockTime = 0 s

Time = 40

smoothSolver:  Solving for Ux, Initial residual = 0.00489269, Final residual = 0.000398167, No Iterations 4
smoothSolver:  Solving for Uy, Initial residual = 0.00617634, Final residual = 0.000514328, No Iterations 4
GAMG:  Solving for p, Initial residual = 0.00260391, Final residual = 0.000175833, No Iterations 2
time step continuity errors : sum local = 4.80898e-06, global = -1.9384e-17, cumulative = -5.31814e-17
ExecutionTime = 0.47 s  ClockTime = 0 s

Time = 41

smoothSolver:  Solving for Ux, Initial residual = 0.00474432, Final residual = 0.000386315, No Iterations 4
smoothSolver:  Solving for Uy, Initial residual = 0.00594131, Final residual = 0.000494937, No Iterations 4
GAMG:  Solving for p, Initial residual = 0.00233614, Final residual = 7.16049e-05, No Iterations 3
time step continuity errors : sum local = 1.9052e-06, global = -1.00578e-17, cumulative = -6.32392e-17
ExecutionTime = 0.47 s  ClockTime = 0 s

Time = 42

smoothSolver:  Solving for Ux, Initial residual = 0.0046045, Final residual = 0.000375099, No Iterations 4
smoothSolver:  Solving for Uy, Initial residual = 0.00575209, Final residual = 0.000479292, No Iterations 4
GAMG:  Solving for p, Initial residual = 0.00165523, Final residual = 0.000109618, No Iterations 2
time step continuity errors : sum local = 3.00445e-06, global = 1.38407e-18, cumulative = -6.18552e-17
ExecutionTime = 0.49 s  ClockTime = 0 s

Time = 43

smoothSolver:  Solving for Ux, Initial residual = 0.00449114, Final residual = 0.000366105, No Iterations 4
smoothSolver:  Solving for Uy, Initial residual = 0.00563265, Final residual = 0.000469324, No Iterations 4
GAMG:  Solving for p, Initial residual = 0.00184433, Final residual = 0.000178824, No Iterations 2
time step continuity errors : sum local = 4.46427e-06, global = 9.62971e-19, cumulative = -6.08922e-17
ExecutionTime = 0.49 s  ClockTime = 0 s

Time = 44

smoothSolver:  Solving for Ux, Initial residual = 0.00439055, Final residual = 0.000358146, No Iterations 4
smoothSolver:  Solving for Uy, Initial residual = 0.00553888, Final residual = 0.000461473, No Iterations 4
GAMG:  Solving for p, Initial residual = 0.00180382, Final residual = 0.00013582, No Iterations 2
time step continuity errors : sum local = 3.33109e-06, global = -5.5609e-18, cumulative = -6.64531e-17
ExecutionTime = 0.51 s  ClockTime = 0 s

Time = 45

smoothSolver:  Solving for Ux, Initial residual = 0.00429001, Final residual = 0.000350124, No Iterations 4
smoothSolver:  Solving for Uy, Initial residual = 0.0054199, Final residual = 0.000451598, No Iterations 4
GAMG:  Solving for p, Initial residual = 0.00158029, Final residual = 0.000129118, No Iterations 2
time step continuity errors : sum local = 3.30292e-06, global = 4.68383e-19, cumulative = -6.59847e-17
ExecutionTime = 0.52 s  ClockTime = 0 s

Time = 46

smoothSolver:  Solving for Ux, Initial residual = 0.00418461, Final residual = 0.000341643, No Iterations 4
smoothSolver:  Solving for Uy, Initial residual = 0.00526931, Final residual = 0.000439151, No Iterations 4
GAMG:  Solving for p, Initial residual = 0.00169169, Final residual = 0.000114961, No Iterations 2
time step continuity errors : sum local = 3.18228e-06, global = 5.58835e-18, cumulative = -6.03964e-17
ExecutionTime = 0.52 s  ClockTime = 0 s

Time = 47

smoothSolver:  Solving for Ux, Initial residual = 0.00407944, Final residual = 0.000333186, No Iterations 4
smoothSolver:  Solving for Uy, Initial residual = 0.00512007, Final residual = 0.000426781, No Iterations 4
GAMG:  Solving for p, Initial residual = 0.00150006, Final residual = 0.000106449, No Iterations 3
time step continuity errors : sum local = 2.79107e-06, global = 8.42324e-18, cumulative = -5.19731e-17
ExecutionTime = 0.54 s  ClockTime = 0 s

Time = 48

smoothSolver:  Solving for Ux, Initial residual = 0.00398155, Final residual = 0.000325371, No Iterations 4
smoothSolver:  Solving for Uy, Initial residual = 0.00499954, Final residual = 0.000416774, No Iterations 4
GAMG:  Solving for p, Initial residual = 0.00123183, Final residual = 8.57414e-05, No Iterations 3
time step continuity errors : sum local = 2.2216e-06, global = 4.25212e-18, cumulative = -4.7721e-17
ExecutionTime = 0.55 s  ClockTime = 0 s

Time = 49

smoothSolver:  Solving for Ux, Initial residual = 0.00389338, Final residual = 0.000318324, No Iterations 4
smoothSolver:  Solving for Uy, Initial residual = 0.00490306, Final residual = 0.000408736, No Iterations 4
GAMG:  Solving for p, Initial residual = 0.00125059, Final residual = 9.26747e-05, No Iterations 2
time step continuity errors : sum local = 2.45328e-06, global = -1.25875e-17, cumulative = -6.03085e-17
ExecutionTime = 0.55 s  ClockTime = 0 s

Time = 50

smoothSolver:  Solving for Ux, Initial residual = 0.00381123, Final residual = 0.000311755, No Iterations 4
smoothSolver:  Solving for Uy, Initial residual = 0.00481167, Final residual = 0.000401125, No Iterations 4
GAMG:  Solving for p, Initial residual = 0.00119078, Final residual = 9.69649e-05, No Iterations 2
time step continuity errors : sum local = 2.51831e-06, global = 3.22081e-18, cumulative = -5.70877e-17
ExecutionTime = 0.57 s  ClockTime = 0 s

Time = 51

smoothSolver:  Solving for Ux, Initial residual = 0.00373065, Final residual = 0.00030528, No Iterations 4
smoothSolver:  Solving for Uy, Initial residual = 0.0047099, Final residual = 0.000392678, No Iterations 4
GAMG:  Solving for p, Initial residual = 0.00118199, Final residual = 9.53074e-05, No Iterations 2
time step continuity errors : sum local = 2.55033e-06, global = 3.15336e-18, cumulative = -5.39343e-17
ExecutionTime = 0.57 s  ClockTime = 0 s

Time = 52

smoothSolver:  Solving for Ux, Initial residual = 0.00365045, Final residual = 0.000298812, No Iterations 4
smoothSolver:  Solving for Uy, Initial residual = 0.00460045, Final residual = 0.000383601, No Iterations 4
GAMG:  Solving for p, Initial residual = 0.00118957, Final residual = 8.67082e-05, No Iterations 2
time step continuity errors : sum local = 2.47554e-06, global = -4.02171e-18, cumulative = -5.79561e-17
ExecutionTime = 0.58 s  ClockTime = 0 s

Time = 53

smoothSolver:  Solving for Ux, Initial residual = 0.0035721, Final residual = 0.000292485, No Iterations 4
smoothSolver:  Solving for Uy, Initial residual = 0.00449621, Final residual = 0.000374945, No Iterations 4
GAMG:  Solving for p, Initial residual = 0.00107662, Final residual = 8.48908e-05, No Iterations 3
time step continuity errors : sum local = 2.2367e-06, global = 9.95113e-18, cumulative = -4.80049e-17
ExecutionTime = 0.58 s  ClockTime = 0 s

Time = 54

smoothSolver:  Solving for Ux, Initial residual = 0.00349721, Final residual = 0.000286442, No Iterations 4
smoothSolver:  Solving for Uy, Initial residual = 0.00440609, Final residual = 0.000367459, No Iterations 4
GAMG:  Solving for p, Initial residual = 0.000965829, Final residual = 7.44321e-05, No Iterations 3
time step continuity errors : sum local = 1.91916e-06, global = -6.17092e-18, cumulative = -5.41758e-17
ExecutionTime = 0.6 s  ClockTime = 0 s

Time = 55

smoothSolver:  Solving for Ux, Initial residual = 0.00342637, Final residual = 0.000280768, No Iterations 4
smoothSolver:  Solving for Uy, Initial residual = 0.00432518, Final residual = 0.00036072, No Iterations 4
GAMG:  Solving for p, Initial residual = 0.000945149, Final residual = 7.36444e-05, No Iterations 2
time step continuity errors : sum local = 1.9652e-06, global = 2.53158e-18, cumulative = -5.16443e-17
ExecutionTime = 0.62 s  ClockTime = 0 s

Time = 56

smoothSolver:  Solving for Ux, Initial residual = 0.00335905, Final residual = 0.00027537, No Iterations 4
smoothSolver:  Solving for Uy, Initial residual = 0.00424539, Final residual = 0.000354081, No Iterations 4
GAMG:  Solving for p, Initial residual = 0.000913995, Final residual = 7.61413e-05, No Iterations 2
time step continuity errors : sum local = 2.00331e-06, global = -1.40388e-17, cumulative = -6.56831e-17
ExecutionTime = 0.62 s  ClockTime = 0 s

Time = 57

smoothSolver:  Solving for Ux, Initial residual = 0.00329394, Final residual = 0.000270125, No Iterations 4
smoothSolver:  Solving for Uy, Initial residual = 0.00416301, Final residual = 0.000347233, No Iterations 4
GAMG:  Solving for p, Initial residual = 0.000938243, Final residual = 7.53678e-05, No Iterations 2
time step continuity errors : sum local = 2.05145e-06, global = 3.28976e-18, cumulative = -6.23933e-17
ExecutionTime = 0.63 s  ClockTime = 1 s

Time = 58

smoothSolver:  Solving for Ux, Initial residual = 0.00323045, Final residual = 0.000264995, No Iterations 4
smoothSolver:  Solving for Uy, Initial residual = 0.00407993, Final residual = 0.000340331, No Iterations 4
GAMG:  Solving for p, Initial residual = 0.000923189, Final residual = 7.07499e-05, No Iterations 2
time step continuity errors : sum local = 2.05344e-06, global = -6.11245e-18, cumulative = -6.85058e-17
ExecutionTime = 0.63 s  ClockTime = 1 s

Time = 59

smoothSolver:  Solving for Ux, Initial residual = 0.0031688, Final residual = 0.000260007, No Iterations 4
smoothSolver:  Solving for Uy, Initial residual = 0.00400087, Final residual = 0.000333758, No Iterations 4
GAMG:  Solving for p, Initial residual = 0.000860243, Final residual = 7.0708e-05, No Iterations 3
time step continuity errors : sum local = 1.87627e-06, global = -1.50258e-17, cumulative = -8.35315e-17
ExecutionTime = 0.65 s  ClockTime = 1 s

Time = 60

smoothSolver:  Solving for Ux, Initial residual = 0.00310914, Final residual = 0.00025518, No Iterations 4
smoothSolver:  Solving for Uy, Initial residual = 0.00392887, Final residual = 0.000327777, No Iterations 4
GAMG:  Solving for p, Initial residual = 0.000809451, Final residual = 6.4887e-05, No Iterations 3
time step continuity errors : sum local = 1.67573e-06, global = -3.05278e-18, cumulative = -8.65843e-17
ExecutionTime = 0.66 s  ClockTime = 1 s

Time = 61

smoothSolver:  Solving for Ux, Initial residual = 0.0030518, Final residual = 0.00025054, No Iterations 4
smoothSolver:  Solving for Uy, Initial residual = 0.00386093, Final residual = 0.00032212, No Iterations 4
GAMG:  Solving for p, Initial residual = 0.000793682, Final residual = 6.14963e-05, No Iterations 2
time step continuity errors : sum local = 1.64707e-06, global = 4.30966e-18, cumulative = -8.22747e-17
ExecutionTime = 0.66 s  ClockTime = 1 s

Time = 62

smoothSolver:  Solving for Ux, Initial residual = 0.00299658, Final residual = 0.000246075, No Iterations 4
smoothSolver:  Solving for Uy, Initial residual = 0.00379371, Final residual = 0.000316526, No Iterations 4
GAMG:  Solving for p, Initial residual = 0.00077237, Final residual = 6.28679e-05, No Iterations 2
time step continuity errors : sum local = 1.65873e-06, global = -1.58692e-17, cumulative = -9.81439e-17
ExecutionTime = 0.68 s  ClockTime = 1 s

Time = 63

smoothSolver:  Solving for Ux, Initial residual = 0.00294321, Final residual = 0.000241761, No Iterations 4
smoothSolver:  Solving for Uy, Initial residual = 0.00372683, Final residual = 0.00031096, No Iterations 4
GAMG:  Solving for p, Initial residual = 0.000779762, Final residual = 6.23877e-05, No Iterations 2
time step continuity errors : sum local = 1.70546e-06, global = -1.18186e-18, cumulative = -9.93257e-17
ExecutionTime = 0.68 s  ClockTime = 1 s

Time = 64

smoothSolver:  Solving for Ux, Initial residual = 0.00289148, Final residual = 0.000237592, No Iterations 4
smoothSolver:  Solving for Uy, Initial residual = 0.00366103, Final residual = 0.000305487, No Iterations 4
GAMG:  Solving for p, Initial residual = 0.000763996, Final residual = 5.85362e-05, No Iterations 3
time step continuity errors : sum local = 1.50916e-06, global = 5.02231e-19, cumulative = -9.88235e-17
ExecutionTime = 0.69 s  ClockTime = 1 s

Time = 65

smoothSolver:  Solving for Ux, Initial residual = 0.00284125, Final residual = 0.000233527, No Iterations 4
smoothSolver:  Solving for Uy, Initial residual = 0.00359806, Final residual = 0.000300255, No Iterations 4
GAMG:  Solving for p, Initial residual = 0.000717283, Final residual = 5.50569e-05, No Iterations 2
time step continuity errors : sum local = 1.58433e-06, global = 8.66856e-18, cumulative = -9.0155e-17
ExecutionTime = 0.69 s  ClockTime = 1 s

Time = 66

smoothSolver:  Solving for Ux, Initial residual = 0.00279262, Final residual = 0.000229588, No Iterations 4
smoothSolver:  Solving for Uy, Initial residual = 0.00353811, Final residual = 0.000295262, No Iterations 4
GAMG:  Solving for p, Initial residual = 0.000695369, Final residual = 5.58117e-05, No Iterations 3
time step continuity errors : sum local = 1.44212e-06, global = -9.0389e-18, cumulative = -9.91939e-17
ExecutionTime = 0.71 s  ClockTime = 1 s

Time = 67

smoothSolver:  Solving for Ux, Initial residual = 0.0027455, Final residual = 0.000225766, No Iterations 4
smoothSolver:  Solving for Uy, Initial residual = 0.00348112, Final residual = 0.000290521, No Iterations 4
GAMG:  Solving for p, Initial residual = 0.000680327, Final residual = 5.26684e-05, No Iterations 2
time step continuity errors : sum local = 1.47217e-06, global = -1.93402e-18, cumulative = -1.01128e-16
ExecutionTime = 0.73 s  ClockTime = 1 s

Time = 68

smoothSolver:  Solving for Ux, Initial residual = 0.00269992, Final residual = 0.00022207, No Iterations 4
smoothSolver:  Solving for Uy, Initial residual = 0.00342508, Final residual = 0.000285854, No Iterations 4
GAMG:  Solving for p, Initial residual = 0.00066299, Final residual = 5.3167e-05, No Iterations 2
time step continuity errors : sum local = 1.49829e-06, global = -6.08288e-18, cumulative = -1.07211e-16
ExecutionTime = 0.73 s  ClockTime = 1 s

Time = 69

smoothSolver:  Solving for Ux, Initial residual = 0.00265576, Final residual = 0.000218486, No Iterations 4
smoothSolver:  Solving for Uy, Initial residual = 0.00336993, Final residual = 0.000281261, No Iterations 4
GAMG:  Solving for p, Initial residual = 0.000664247, Final residual = 5.26461e-05, No Iterations 3
time step continuity errors : sum local = 1.35996e-06, global = 1.89462e-17, cumulative = -8.82645e-17
ExecutionTime = 0.74 s  ClockTime = 1 s

Time = 70

smoothSolver:  Solving for Ux, Initial residual = 0.00261269, Final residual = 0.000214983, No Iterations 4
smoothSolver:  Solving for Uy, Initial residual = 0.00331619, Final residual = 0.000276792, No Iterations 4
GAMG:  Solving for p, Initial residual = 0.000641959, Final residual = 4.99045e-05, No Iterations 2
time step continuity errors : sum local = 1.41171e-06, global = 1.69741e-18, cumulative = -8.65671e-17
ExecutionTime = 0.74 s  ClockTime = 1 s

Time = 71

smoothSolver:  Solving for Ux, Initial residual = 0.00257071, Final residual = 0.000211572, No Iterations 4
smoothSolver:  Solving for Uy, Initial residual = 0.00326392, Final residual = 0.000272441, No Iterations 4
GAMG:  Solving for p, Initial residual = 0.000620748, Final residual = 4.81156e-05, No Iterations 2
time step continuity errors : sum local = 1.39488e-06, global = -5.41307e-20, cumulative = -8.66213e-17
ExecutionTime = 0.76 s  ClockTime = 1 s

Time = 72

smoothSolver:  Solving for Ux, Initial residual = 0.00252985, Final residual = 0.000208252, No Iterations 4
smoothSolver:  Solving for Uy, Initial residual = 0.0032137, Final residual = 0.000268258, No Iterations 4
GAMG:  Solving for p, Initial residual = 0.000605685, Final residual = 5.01975e-05, No Iterations 3
time step continuity errors : sum local = 1.31119e-06, global = -4.70092e-18, cumulative = -9.13222e-17
ExecutionTime = 0.78 s  ClockTime = 1 s

Time = 73

smoothSolver:  Solving for Ux, Initial residual = 0.00249009, Final residual = 0.000205033, No Iterations 4
smoothSolver:  Solving for Uy, Initial residual = 0.00316563, Final residual = 0.000264258, No Iterations 4
GAMG:  Solving for p, Initial residual = 0.00059546, Final residual = 4.58225e-05, No Iterations 2
time step continuity errors : sum local = 1.31741e-06, global = -6.51818e-19, cumulative = -9.1974e-17
ExecutionTime = 0.78 s  ClockTime = 1 s

Time = 74

smoothSolver:  Solving for Ux, Initial residual = 0.00245166, Final residual = 0.000201915, No Iterations 4
smoothSolver:  Solving for Uy, Initial residual = 0.00311822, Final residual = 0.000260309, No Iterations 4
GAMG:  Solving for p, Initial residual = 0.000583188, Final residual = 4.55468e-05, No Iterations 2
time step continuity errors : sum local = 1.32509e-06, global = -6.60084e-18, cumulative = -9.85748e-17
ExecutionTime = 0.79 s  ClockTime = 1 s

Time = 75

smoothSolver:  Solving for Ux, Initial residual = 0.0024144, Final residual = 0.000198888, No Iterations 4
smoothSolver:  Solving for Uy, Initial residual = 0.00307183, Final residual = 0.000256444, No Iterations 4
GAMG:  Solving for p, Initial residual = 0.000576602, Final residual = 4.75119e-05, No Iterations 3
time step continuity errors : sum local = 1.24089e-06, global = -4.97218e-19, cumulative = -9.9072e-17
ExecutionTime = 0.79 s  ClockTime = 1 s

Time = 76

smoothSolver:  Solving for Ux, Initial residual = 0.00237811, Final residual = 0.000195934, No Iterations 4
smoothSolver:  Solving for Uy, Initial residual = 0.00302695, Final residual = 0.000252709, No Iterations 4
GAMG:  Solving for p, Initial residual = 0.000562845, Final residual = 4.31275e-05, No Iterations 2
time step continuity errors : sum local = 1.23736e-06, global = -1.59593e-17, cumulative = -1.15031e-16
ExecutionTime = 0.81 s  ClockTime = 1 s

Time = 77

smoothSolver:  Solving for Ux, Initial residual = 0.00234279, Final residual = 0.000193059, No Iterations 4
smoothSolver:  Solving for Uy, Initial residual = 0.00298288, Final residual = 0.000249039, No Iterations 4
GAMG:  Solving for p, Initial residual = 0.000548276, Final residual = 4.21657e-05, No Iterations 2
time step continuity errors : sum local = 1.22778e-06, global = 2.12929e-17, cumulative = -9.37385e-17
ExecutionTime = 0.82 s  ClockTime = 1 s

Time = 78

smoothSolver:  Solving for Ux, Initial residual = 0.00230841, Final residual = 0.00019026, No Iterations 4
smoothSolver:  Solving for Uy, Initial residual = 0.00294024, Final residual = 0.000245485, No Iterations 4
GAMG:  Solving for p, Initial residual = 0.000536661, Final residual = 4.40394e-05, No Iterations 3
time step continuity errors : sum local = 1.15042e-06, global = 1.20437e-17, cumulative = -8.16948e-17
ExecutionTime = 0.82 s  ClockTime = 1 s

Time = 79

smoothSolver:  Solving for Ux, Initial residual = 0.00227488, Final residual = 0.000187527, No Iterations 4
smoothSolver:  Solving for Uy, Initial residual = 0.0028992, Final residual = 0.000242068, No Iterations 4
GAMG:  Solving for p, Initial residual = 0.000528129, Final residual = 4.01687e-05, No Iterations 2
time step continuity errors : sum local = 1.15677e-06, global = -3.05384e-18, cumulative = -8.47486e-17
ExecutionTime = 0.84 s  ClockTime = 1 s

Time = 80

smoothSolver:  Solving for Ux, Initial residual = 0.0022422, Final residual = 0.000184864, No Iterations 4
smoothSolver:  Solving for Uy, Initial residual = 0.00285872, Final residual = 0.000238696, No Iterations 4
GAMG:  Solving for p, Initial residual = 0.000517955, Final residual = 3.97194e-05, No Iterations 2
time step continuity errors : sum local = 1.16145e-06, global = 1.34634e-17, cumulative = -7.12853e-17
ExecutionTime = 0.84 s  ClockTime = 1 s

Time = 81

smoothSolver:  Solving for Ux, Initial residual = 0.00221035, Final residual = 0.000182268, No Iterations 4
smoothSolver:  Solving for Uy, Initial residual = 0.00281919, Final residual = 0.000235401, No Iterations 4
GAMG:  Solving for p, Initial residual = 0.000510523, Final residual = 4.19679e-05, No Iterations 3
time step continuity errors : sum local = 1.0986e-06, global = 6.10524e-18, cumulative = -6.518e-17
ExecutionTime = 0.85 s  ClockTime = 1 s

Time = 82

smoothSolver:  Solving for Ux, Initial residual = 0.00217922, Final residual = 0.000179727, No Iterations 4
smoothSolver:  Solving for Uy, Initial residual = 0.00278094, Final residual = 0.000232217, No Iterations 4
GAMG:  Solving for p, Initial residual = 0.000500561, Final residual = 3.78087e-05, No Iterations 2
time step continuity errors : sum local = 1.09282e-06, global = 1.13143e-18, cumulative = -6.40486e-17
ExecutionTime = 0.87 s  ClockTime = 1 s

Time = 83

smoothSolver:  Solving for Ux, Initial residual = 0.00214881, Final residual = 0.000177256, No Iterations 4
smoothSolver:  Solving for Uy, Initial residual = 0.00274327, Final residual = 0.000229078, No Iterations 4
GAMG:  Solving for p, Initial residual = 0.000489293, Final residual = 3.72022e-05, No Iterations 2
time step continuity errors : sum local = 1.09091e-06, global = -8.07148e-18, cumulative = -7.21201e-17
ExecutionTime = 0.87 s  ClockTime = 1 s

Time = 84

smoothSolver:  Solving for Ux, Initial residual = 0.00211928, Final residual = 0.000174853, No Iterations 4
smoothSolver:  Solving for Uy, Initial residual = 0.00270665, Final residual = 0.000226025, No Iterations 4
GAMG:  Solving for p, Initial residual = 0.000480666, Final residual = 3.93536e-05, No Iterations 3
time step continuity errors : sum local = 1.031e-06, global = -6.29326e-18, cumulative = -7.84133e-17
ExecutionTime = 0.89 s  ClockTime = 1 s

Time = 85

smoothSolver:  Solving for Ux, Initial residual = 0.00209047, Final residual = 0.000172503, No Iterations 4
smoothSolver:  Solving for Uy, Initial residual = 0.00267129, Final residual = 0.000223081, No Iterations 4
GAMG:  Solving for p, Initial residual = 0.000472697, Final residual = 3.55312e-05, No Iterations 2
time step continuity errors : sum local = 1.02795e-06, global = -1.2927e-18, cumulative = -7.9706e-17
ExecutionTime = 0.89 s  ClockTime = 1 s

Time = 86

smoothSolver:  Solving for Ux, Initial residual = 0.00206234, Final residual = 0.000170209, No Iterations 4
smoothSolver:  Solving for Uy, Initial residual = 0.00263636, Final residual = 0.000220169, No Iterations 4
GAMG:  Solving for p, Initial residual = 0.000463822, Final residual = 3.51037e-05, No Iterations 2
time step continuity errors : sum local = 1.03049e-06, global = 3.7324e-18, cumulative = -7.59736e-17
ExecutionTime = 0.9 s  ClockTime = 1 s

Time = 87

smoothSolver:  Solving for Ux, Initial residual = 0.00203491, Final residual = 0.00016797, No Iterations 4
smoothSolver:  Solving for Uy, Initial residual = 0.00260225, Final residual = 0.000217325, No Iterations 4
GAMG:  Solving for p, Initial residual = 0.000456738, Final residual = 3.73809e-05, No Iterations 3
time step continuity errors : sum local = 9.79678e-07, global = -1.2497e-17, cumulative = -8.84706e-17
ExecutionTime = 0.91 s  ClockTime = 1 s

Time = 88

smoothSolver:  Solving for Ux, Initial residual = 0.00200807, Final residual = 0.000165777, No Iterations 4
smoothSolver:  Solving for Uy, Initial residual = 0.00256924, Final residual = 0.000214576, No Iterations 4
GAMG:  Solving for p, Initial residual = 0.000449121, Final residual = 3.35197e-05, No Iterations 2
time step continuity errors : sum local = 9.72117e-07, global = 1.33583e-17, cumulative = -7.51123e-17
ExecutionTime = 0.91 s  ClockTime = 1 s

Time = 89

smoothSolver:  Solving for Ux, Initial residual = 0.00198182, Final residual = 0.000163634, No Iterations 4
smoothSolver:  Solving for Uy, Initial residual = 0.00253664, Final residual = 0.000211858, No Iterations 4
GAMG:  Solving for p, Initial residual = 0.000439922, Final residual = 3.30813e-05, No Iterations 2
time step continuity errors : sum local = 9.73817e-07, global = -9.14852e-18, cumulative = -8.42608e-17
ExecutionTime = 0.93 s  ClockTime = 1 s

Time = 90

smoothSolver:  Solving for Ux, Initial residual = 0.00195619, Final residual = 0.000161539, No Iterations 4
smoothSolver:  Solving for Uy, Initial residual = 0.00250486, Final residual = 0.000209208, No Iterations 4
GAMG:  Solving for p, Initial residual = 0.000433197, Final residual = 3.53462e-05, No Iterations 3
time step continuity errors : sum local = 9.27491e-07, global = -1.46217e-17, cumulative = -9.88825e-17
ExecutionTime = 0.93 s  ClockTime = 1 s

Time = 91

smoothSolver:  Solving for Ux, Initial residual = 0.00193108, Final residual = 0.000159486, No Iterations 4
smoothSolver:  Solving for Uy, Initial residual = 0.00247411, Final residual = 0.000206647, No Iterations 4
GAMG:  Solving for p, Initial residual = 0.000426356, Final residual = 3.16745e-05, No Iterations 2
time step continuity errors : sum local = 9.20109e-07, global = 3.49783e-18, cumulative = -9.53847e-17
ExecutionTime = 0.94 s  ClockTime = 1 s

Time = 92

smoothSolver:  Solving for Ux, Initial residual = 0.0019065, Final residual = 0.000157477, No Iterations 4
smoothSolver:  Solving for Uy, Initial residual = 0.00244368, Final residual = 0.00020411, No Iterations 4
GAMG:  Solving for p, Initial residual = 0.000418654, Final residual = 3.13194e-05, No Iterations 2
time step continuity errors : sum local = 9.23131e-07, global = 1.17875e-17, cumulative = -8.35971e-17
ExecutionTime = 0.94 s  ClockTime = 1 s

Time = 93

smoothSolver:  Solving for Ux, Initial residual = 0.00188248, Final residual = 0.000155512, No Iterations 4
smoothSolver:  Solving for Uy, Initial residual = 0.00241395, Final residual = 0.00020163, No Iterations 4
GAMG:  Solving for p, Initial residual = 0.000412625, Final residual = 3.36155e-05, No Iterations 3
time step continuity errors : sum local = 8.8237e-07, global = -4.02429e-18, cumulative = -8.76214e-17
ExecutionTime = 0.96 s  ClockTime = 1 s

Time = 94

smoothSolver:  Solving for Ux, Initial residual = 0.00185893, Final residual = 0.000153587, No Iterations 4
smoothSolver:  Solving for Uy, Initial residual = 0.00238515, Final residual = 0.000199231, No Iterations 4
GAMG:  Solving for p, Initial residual = 0.00040624, Final residual = 2.99894e-05, No Iterations 2
time step continuity errors : sum local = 8.72603e-07, global = -2.29038e-18, cumulative = -8.99118e-17
ExecutionTime = 0.97 s  ClockTime = 1 s

Time = 95

smoothSolver:  Solving for Ux, Initial residual = 0.00183591, Final residual = 0.000151711, No Iterations 4
smoothSolver:  Solving for Uy, Initial residual = 0.00235665, Final residual = 0.000196854, No Iterations 4
GAMG:  Solving for p, Initial residual = 0.000398477, Final residual = 2.96508e-05, No Iterations 2
time step continuity errors : sum local = 8.75736e-07, global = 5.96732e-18, cumulative = -8.39445e-17
ExecutionTime = 0.97 s  ClockTime = 1 s

Time = 96

smoothSolver:  Solving for Ux, Initial residual = 0.0018135, Final residual = 0.00014988, No Iterations 4
smoothSolver:  Solving for Uy, Initial residual = 0.00232881, Final residual = 0.000194532, No Iterations 4
GAMG:  Solving for p, Initial residual = 0.000392801, Final residual = 3.19429e-05, No Iterations 3
time step continuity errors : sum local = 8.39216e-07, global = -1.87088e-17, cumulative = -1.02653e-16
ExecutionTime = 0.99 s  ClockTime = 1 s

Time = 97

smoothSolver:  Solving for Ux, Initial residual = 0.00179158, Final residual = 0.000148085, No Iterations 4
smoothSolver:  Solving for Uy, Initial residual = 0.00230184, Final residual = 0.000192285, No Iterations 4
GAMG:  Solving for p, Initial residual = 0.000386896, Final residual = 2.84447e-05, No Iterations 2
time step continuity errors : sum local = 8.29086e-07, global = -1.4432e-17, cumulative = -1.17085e-16
ExecutionTime = 1 s  ClockTime = 1 s

Time = 98

smoothSolver:  Solving for Ux, Initial residual = 0.00177011, Final residual = 0.000146329, No Iterations 4
smoothSolver:  Solving for Uy, Initial residual = 0.00227511, Final residual = 0.000190056, No Iterations 4
GAMG:  Solving for p, Initial residual = 0.000380031, Final residual = 2.81537e-05, No Iterations 2
time step continuity errors : sum local = 8.32812e-07, global = -3.54146e-18, cumulative = -1.20627e-16
ExecutionTime = 1 s  ClockTime = 1 s

Time = 99

smoothSolver:  Solving for Ux, Initial residual = 0.00174911, Final residual = 0.00014461, No Iterations 4
smoothSolver:  Solving for Uy, Initial residual = 0.00224897, Final residual = 0.000187874, No Iterations 4
GAMG:  Solving for p, Initial residual = 0.000374975, Final residual = 3.0446e-05, No Iterations 3
time step continuity errors : sum local = 8.00311e-07, global = 8.47337e-18, cumulative = -1.12153e-16
ExecutionTime = 1.02 s  ClockTime = 1 s

Time = 100

smoothSolver:  Solving for Ux, Initial residual = 0.00172853, Final residual = 0.000142924, No Iterations 4
smoothSolver:  Solving for Uy, Initial residual = 0.00222362, Final residual = 0.000185762, No Iterations 4
GAMG:  Solving for p, Initial residual = 0.000369612, Final residual = 2.70217e-05, No Iterations 2
time step continuity errors : sum local = 7.88817e-07, global = -1.96621e-17, cumulative = -1.31816e-16
ExecutionTime = 1.02 s  ClockTime = 1 s

Time = 101

smoothSolver:  Solving for Ux, Initial residual = 0.00170835, Final residual = 0.000141272, No Iterations 4
smoothSolver:  Solving for Uy, Initial residual = 0.00219849, Final residual = 0.000183666, No Iterations 4
GAMG:  Solving for p, Initial residual = 0.000363085, Final residual = 2.67531e-05, No Iterations 2
time step continuity errors : sum local = 7.9276e-07, global = -8.5425e-18, cumulative = -1.40358e-16
ExecutionTime = 1.04 s  ClockTime = 1 s

Time = 102

smoothSolver:  Solving for Ux, Initial residual = 0.0016886, Final residual = 0.000139654, No Iterations 4
smoothSolver:  Solving for Uy, Initial residual = 0.0021739, Final residual = 0.000181615, No Iterations 4
GAMG:  Solving for p, Initial residual = 0.000358358, Final residual = 2.90383e-05, No Iterations 3
time step continuity errors : sum local = 7.63835e-07, global = -5.53663e-18, cumulative = -1.45895e-16
ExecutionTime = 1.05 s  ClockTime = 1 s

Time = 103

smoothSolver:  Solving for Ux, Initial residual = 0.00166922, Final residual = 0.000138065, No Iterations 4
smoothSolver:  Solving for Uy, Initial residual = 0.00215006, Final residual = 0.000179627, No Iterations 4
GAMG:  Solving for p, Initial residual = 0.00035336, Final residual = 2.57103e-05, No Iterations 2
time step continuity errors : sum local = 7.51776e-07, global = 3.90888e-18, cumulative = -1.41986e-16
ExecutionTime = 1.05 s  ClockTime = 1 s

Time = 104

smoothSolver:  Solving for Ux, Initial residual = 0.00165018, Final residual = 0.000136506, No Iterations 4
smoothSolver:  Solving for Uy, Initial residual = 0.00212639, Final residual = 0.000177653, No Iterations 4
GAMG:  Solving for p, Initial residual = 0.000347346, Final residual = 2.54737e-05, No Iterations 2
time step continuity errors : sum local = 7.56071e-07, global = 1.52711e-17, cumulative = -1.26715e-16
ExecutionTime = 1.07 s  ClockTime = 1 s

Time = 105

smoothSolver:  Solving for Ux, Initial residual = 0.00163153, Final residual = 0.000134976, No Iterations 4
smoothSolver:  Solving for Uy, Initial residual = 0.00210322, Final residual = 0.00017572, No Iterations 4
GAMG:  Solving for p, Initial residual = 0.000342983, Final residual = 2.7744e-05, No Iterations 3
time step continuity errors : sum local = 7.30232e-07, global = -1.70657e-17, cumulative = -1.4378e-16
ExecutionTime = 1.07 s  ClockTime = 1 s

Time = 106

smoothSolver:  Solving for Ux, Initial residual = 0.00161318, Final residual = 0.000133471, No Iterations 4
smoothSolver:  Solving for Uy, Initial residual = 0.00208074, Final residual = 0.000173845, No Iterations 4
GAMG:  Solving for p, Initial residual = 0.000338287, Final residual = 2.45e-05, No Iterations 2
time step continuity errors : sum local = 7.17453e-07, global = -2.44304e-18, cumulative = -1.46223e-16
ExecutionTime = 1.08 s  ClockTime = 1 s

Time = 107

smoothSolver:  Solving for Ux, Initial residual = 0.00159516, Final residual = 0.000131997, No Iterations 4
smoothSolver:  Solving for Uy, Initial residual = 0.00205841, Final residual = 0.000171983, No Iterations 4
GAMG:  Solving for p, Initial residual = 0.000332552, Final residual = 2.53585e-05, No Iterations 3
time step continuity errors : sum local = 6.55322e-07, global = -1.37478e-17, cumulative = -1.59971e-16
ExecutionTime = 1.1 s  ClockTime = 1 s

Time = 108

smoothSolver:  Solving for Ux, Initial residual = 0.00157754, Final residual = 0.000130553, No Iterations 4
smoothSolver:  Solving for Uy, Initial residual = 0.00203665, Final residual = 0.000170168, No Iterations 4
GAMG:  Solving for p, Initial residual = 0.000329931, Final residual = 2.36934e-05, No Iterations 2
time step continuity errors : sum local = 6.68216e-07, global = 1.10355e-18, cumulative = -1.58868e-16
ExecutionTime = 1.1 s  ClockTime = 1 s

Time = 109

smoothSolver:  Solving for Ux, Initial residual = 0.00156029, Final residual = 0.00012914, No Iterations 4
smoothSolver:  Solving for Uy, Initial residual = 0.00201519, Final residual = 0.000168377, No Iterations 4
GAMG:  Solving for p, Initial residual = 0.000322964, Final residual = 2.3643e-05, No Iterations 2
time step continuity errors : sum local = 6.80922e-07, global = -1.2417e-17, cumulative = -1.71285e-16
ExecutionTime = 1.12 s  ClockTime = 1 s

Time = 110

smoothSolver:  Solving for Ux, Initial residual = 0.00154341, Final residual = 0.000127756, No Iterations 4
smoothSolver:  Solving for Uy, Initial residual = 0.00199418, Final residual = 0.000166624, No Iterations 4
GAMG:  Solving for p, Initial residual = 0.000320379, Final residual = 2.50784e-05, No Iterations 3
time step continuity errors : sum local = 6.54012e-07, global = -9.9943e-18, cumulative = -1.81279e-16
ExecutionTime = 1.13 s  ClockTime = 1 s

Time = 111

smoothSolver:  Solving for Ux, Initial residual = 0.00152683, Final residual = 0.000126395, No Iterations 4
smoothSolver:  Solving for Uy, Initial residual = 0.00197368, Final residual = 0.000164915, No Iterations 4
GAMG:  Solving for p, Initial residual = 0.000314844, Final residual = 2.26965e-05, No Iterations 2
time step continuity errors : sum local = 6.62918e-07, global = -1.40466e-18, cumulative = -1.82684e-16
ExecutionTime = 1.13 s  ClockTime = 1 s

Time = 112

smoothSolver:  Solving for Ux, Initial residual = 0.00151052, Final residual = 0.000125057, No Iterations 4
smoothSolver:  Solving for Uy, Initial residual = 0.00195335, Final residual = 0.000163218, No Iterations 4
GAMG:  Solving for p, Initial residual = 0.000310326, Final residual = 2.3901e-05, No Iterations 3
time step continuity errors : sum local = 6.19287e-07, global = -9.42746e-18, cumulative = -1.92111e-16
ExecutionTime = 1.15 s  ClockTime = 1 s

Time = 113

smoothSolver:  Solving for Ux, Initial residual = 0.00149449, Final residual = 0.00012374, No Iterations 4
smoothSolver:  Solving for Uy, Initial residual = 0.00193353, Final residual = 0.000161565, No Iterations 4
GAMG:  Solving for p, Initial residual = 0.000308301, Final residual = 2.1892e-05, No Iterations 2
time step continuity errors : sum local = 6.22138e-07, global = -1.18162e-17, cumulative = -2.03927e-16
ExecutionTime = 1.15 s  ClockTime = 1 s

Time = 114

smoothSolver:  Solving for Ux, Initial residual = 0.00147876, Final residual = 0.000122449, No Iterations 4
smoothSolver:  Solving for Uy, Initial residual = 0.00191394, Final residual = 0.00015993, No Iterations 4
GAMG:  Solving for p, Initial residual = 0.000301434, Final residual = 2.19431e-05, No Iterations 2
time step continuity errors : sum local = 6.34891e-07, global = 7.20623e-19, cumulative = -2.03207e-16
ExecutionTime = 1.17 s  ClockTime = 1 s

Time = 115

smoothSolver:  Solving for Ux, Initial residual = 0.00146335, Final residual = 0.000121185, No Iterations 4
smoothSolver:  Solving for Uy, Initial residual = 0.00189477, Final residual = 0.00015833, No Iterations 4
GAMG:  Solving for p, Initial residual = 0.000299845, Final residual = 2.34732e-05, No Iterations 3
time step continuity errors : sum local = 6.12878e-07, global = -2.96784e-19, cumulative = -2.03504e-16
ExecutionTime = 1.18 s  ClockTime = 1 s

Time = 116

smoothSolver:  Solving for Ux, Initial residual = 0.00144819, Final residual = 0.00011994, No Iterations 4
smoothSolver:  Solving for Uy, Initial residual = 0.00187606, Final residual = 0.000156769, No Iterations 4
GAMG:  Solving for p, Initial residual = 0.000294157, Final residual = 2.11512e-05, No Iterations 2
time step continuity errors : sum local = 6.16779e-07, global = -4.42652e-18, cumulative = -2.0793e-16
ExecutionTime = 1.18 s  ClockTime = 1 s

Time = 117

smoothSolver:  Solving for Ux, Initial residual = 0.00143326, Final residual = 0.000118714, No Iterations 4
smoothSolver:  Solving for Uy, Initial residual = 0.00185746, Final residual = 0.000155218, No Iterations 4
GAMG:  Solving for p, Initial residual = 0.00029037, Final residual = 2.21673e-05, No Iterations 3
time step continuity errors : sum local = 5.73758e-07, global = -1.0172e-17, cumulative = -2.18102e-16
ExecutionTime = 1.2 s  ClockTime = 1 s

Time = 118

smoothSolver:  Solving for Ux, Initial residual = 0.00141856, Final residual = 0.000117505, No Iterations 4
smoothSolver:  Solving for Uy, Initial residual = 0.0018393, Final residual = 0.000153702, No Iterations 4
GAMG:  Solving for p, Initial residual = 0.000288919, Final residual = 2.03345e-05, No Iterations 2
time step continuity errors : sum local = 5.77618e-07, global = -2.63555e-18, cumulative = -2.20738e-16
ExecutionTime = 1.2 s  ClockTime = 1 s

Time = 119

smoothSolver:  Solving for Ux, Initial residual = 0.00140411, Final residual = 0.000116318, No Iterations 4
smoothSolver:  Solving for Uy, Initial residual = 0.00182135, Final residual = 0.000152204, No Iterations 4
GAMG:  Solving for p, Initial residual = 0.000282263, Final residual = 2.03907e-05, No Iterations 2
time step continuity errors : sum local = 5.90713e-07, global = -1.06105e-17, cumulative = -2.31348e-16
ExecutionTime = 1.21 s  ClockTime = 1 s

Time = 120

smoothSolver:  Solving for Ux, Initial residual = 0.00138995, Final residual = 0.000115154, No Iterations 4
smoothSolver:  Solving for Uy, Initial residual = 0.00180379, Final residual = 0.000150738, No Iterations 4
GAMG:  Solving for p, Initial residual = 0.000280938, Final residual = 2.19617e-05, No Iterations 3
time step continuity errors : sum local = 5.73826e-07, global = 9.34117e-18, cumulative = -2.22007e-16
ExecutionTime = 1.23 s  ClockTime = 1 s

Time = 121

smoothSolver:  Solving for Ux, Initial residual = 0.00137604, Final residual = 0.000114013, No Iterations 4
smoothSolver:  Solving for Uy, Initial residual = 0.00178663, Final residual = 0.000149307, No Iterations 4
GAMG:  Solving for p, Initial residual = 0.000275681, Final residual = 1.97274e-05, No Iterations 2
time step continuity errors : sum local = 5.76642e-07, global = 7.43416e-18, cumulative = -2.14573e-16
ExecutionTime = 1.23 s  ClockTime = 1 s

Time = 122

smoothSolver:  Solving for Ux, Initial residual = 0.00136238, Final residual = 0.000112891, No Iterations 4
smoothSolver:  Solving for Uy, Initial residual = 0.00176957, Final residual = 0.000147883, No Iterations 4
GAMG:  Solving for p, Initial residual = 0.000272453, Final residual = 2.08093e-05, No Iterations 3
time step continuity errors : sum local = 5.3911e-07, global = -3.16554e-19, cumulative = -2.14889e-16
ExecutionTime = 1.24 s  ClockTime = 1 s

Time = 123

smoothSolver:  Solving for Ux, Initial residual = 0.00134895, Final residual = 0.000111787, No Iterations 4
smoothSolver:  Solving for Uy, Initial residual = 0.00175288, Final residual = 0.00014649, No Iterations 4
GAMG:  Solving for p, Initial residual = 0.000271185, Final residual = 1.89781e-05, No Iterations 2
time step continuity errors : sum local = 5.40086e-07, global = 5.87949e-18, cumulative = -2.0901e-16
ExecutionTime = 1.26 s  ClockTime = 1 s

Time = 124

smoothSolver:  Solving for Ux, Initial residual = 0.00133575, Final residual = 0.000110703, No Iterations 4
smoothSolver:  Solving for Uy, Initial residual = 0.00173637, Final residual = 0.000145112, No Iterations 4
GAMG:  Solving for p, Initial residual = 0.000265113, Final residual = 1.90332e-05, No Iterations 2
time step continuity errors : sum local = 5.52312e-07, global = 1.33991e-17, cumulative = -1.95611e-16
ExecutionTime = 1.26 s  ClockTime = 1 s

Time = 125

smoothSolver:  Solving for Ux, Initial residual = 0.00132282, Final residual = 0.00010964, No Iterations 4
smoothSolver:  Solving for Uy, Initial residual = 0.00172021, Final residual = 0.000143762, No Iterations 4
GAMG:  Solving for p, Initial residual = 0.000263961, Final residual = 2.05814e-05, No Iterations 3
time step continuity errors : sum local = 5.38044e-07, global = 5.71846e-18, cumulative = -1.89892e-16
ExecutionTime = 1.27 s  ClockTime = 1 s

Time = 126

smoothSolver:  Solving for Ux, Initial residual = 0.00131009, Final residual = 0.000108593, No Iterations 4
smoothSolver:  Solving for Uy, Initial residual = 0.00170442, Final residual = 0.000142446, No Iterations 4
GAMG:  Solving for p, Initial residual = 0.000259202, Final residual = 1.84378e-05, No Iterations 2
time step continuity errors : sum local = 5.39891e-07, global = -5.11932e-18, cumulative = -1.95012e-16
ExecutionTime = 1.27 s  ClockTime = 1 s

Time = 127

smoothSolver:  Solving for Ux, Initial residual = 0.00129756, Final residual = 0.000107563, No Iterations 4
smoothSolver:  Solving for Uy, Initial residual = 0.00168871, Final residual = 0.000141134, No Iterations 4
GAMG:  Solving for p, Initial residual = 0.00025638, Final residual = 1.95482e-05, No Iterations 3
time step continuity errors : sum local = 5.06719e-07, global = -1.53198e-17, cumulative = -2.10331e-16
ExecutionTime = 1.28 s  ClockTime = 1 s

Time = 128

smoothSolver:  Solving for Ux, Initial residual = 0.0012852, Final residual = 0.000106546, No Iterations 4
smoothSolver:  Solving for Uy, Initial residual = 0.00167332, Final residual = 0.00013985, No Iterations 4
GAMG:  Solving for p, Initial residual = 0.000255326, Final residual = 1.7764e-05, No Iterations 2
time step continuity errors : sum local = 5.06534e-07, global = 4.65838e-18, cumulative = -2.05673e-16
ExecutionTime = 1.3 s  ClockTime = 1 s

Time = 129

smoothSolver:  Solving for Ux, Initial residual = 0.00127304, Final residual = 0.000105546, No Iterations 4
smoothSolver:  Solving for Uy, Initial residual = 0.00165809, Final residual = 0.000138578, No Iterations 4
GAMG:  Solving for p, Initial residual = 0.000249687, Final residual = 1.78237e-05, No Iterations 2
time step continuity errors : sum local = 5.18339e-07, global = -6.4384e-18, cumulative = -2.12111e-16
ExecutionTime = 1.3 s  ClockTime = 1 s

Time = 130

smoothSolver:  Solving for Ux, Initial residual = 0.0012611, Final residual = 0.000104563, No Iterations 4
smoothSolver:  Solving for Uy, Initial residual = 0.00164317, Final residual = 0.000137332, No Iterations 4
GAMG:  Solving for p, Initial residual = 0.000248677, Final residual = 1.93558e-05, No Iterations 3
time step continuity errors : sum local = 5.06446e-07, global = -9.3215e-19, cumulative = -2.13044e-16
ExecutionTime = 1.32 s  ClockTime = 1 s

Time = 131

smoothSolver:  Solving for Ux, Initial residual = 0.00124933, Final residual = 0.000103594, No Iterations 4
smoothSolver:  Solving for Uy, Initial residual = 0.00162859, Final residual = 0.000136116, No Iterations 4
GAMG:  Solving for p, Initial residual = 0.000244228, Final residual = 1.72821e-05, No Iterations 2
time step continuity errors : sum local = 5.07098e-07, global = -4.15989e-20, cumulative = -2.13085e-16
ExecutionTime = 1.32 s  ClockTime = 1 s

Time = 132

smoothSolver:  Solving for Ux, Initial residual = 0.0012377, Final residual = 0.000102638, No Iterations 4
smoothSolver:  Solving for Uy, Initial residual = 0.00161407, Final residual = 0.000134903, No Iterations 4
GAMG:  Solving for p, Initial residual = 0.000241671, Final residual = 1.84092e-05, No Iterations 3
time step continuity errors : sum local = 4.77491e-07, global = 5.67714e-18, cumulative = -2.07408e-16
ExecutionTime = 1.33 s  ClockTime = 1 s

Time = 133

smoothSolver:  Solving for Ux, Initial residual = 0.00122624, Final residual = 0.000101693, No Iterations 4
smoothSolver:  Solving for Uy, Initial residual = 0.00159985, Final residual = 0.000133716, No Iterations 4
GAMG:  Solving for p, Initial residual = 0.000240791, Final residual = 1.66711e-05, No Iterations 2
time step continuity errors : sum local = 4.76229e-07, global = 3.94669e-18, cumulative = -2.03461e-16
ExecutionTime = 1.35 s  ClockTime = 1 s

Time = 134

smoothSolver:  Solving for Ux, Initial residual = 0.00121494, Final residual = 0.000100763, No Iterations 4
smoothSolver:  Solving for Uy, Initial residual = 0.00158575, Final residual = 0.000132539, No Iterations 4
GAMG:  Solving for p, Initial residual = 0.000235549, Final residual = 1.67382e-05, No Iterations 2
time step continuity errors : sum local = 4.87712e-07, global = -4.49628e-18, cumulative = -2.07958e-16
ExecutionTime = 1.35 s  ClockTime = 1 s

Time = 135

smoothSolver:  Solving for Ux, Initial residual = 0.00120384, Final residual = 9.98495e-05, No Iterations 4
smoothSolver:  Solving for Uy, Initial residual = 0.00157193, Final residual = 0.000131385, No Iterations 4
GAMG:  Solving for p, Initial residual = 0.000234711, Final residual = 1.82438e-05, No Iterations 3
time step continuity errors : sum local = 4.77726e-07, global = 1.20579e-17, cumulative = -1.959e-16
ExecutionTime = 1.36 s  ClockTime = 1 s

Time = 136

smoothSolver:  Solving for Ux, Initial residual = 0.00119292, Final residual = 9.89509e-05, No Iterations 4
smoothSolver:  Solving for Uy, Initial residual = 0.00155843, Final residual = 0.000130258, No Iterations 4
GAMG:  Solving for p, Initial residual = 0.000230609, Final residual = 1.62422e-05, No Iterations 2
time step continuity errors : sum local = 4.77553e-07, global = -3.81189e-18, cumulative = -1.99712e-16
ExecutionTime = 1.36 s  ClockTime = 1 s

Time = 137

smoothSolver:  Solving for Ux, Initial residual = 0.00118217, Final residual = 9.80662e-05, No Iterations 4
smoothSolver:  Solving for Uy, Initial residual = 0.00154496, Final residual = 0.000129134, No Iterations 4
GAMG:  Solving for p, Initial residual = 0.000228334, Final residual = 1.73766e-05, No Iterations 3
time step continuity errors : sum local = 4.51004e-07, global = 3.07339e-17, cumulative = -1.68978e-16
ExecutionTime = 1.38 s  ClockTime = 1 s

Time = 138

smoothSolver:  Solving for Ux, Initial residual = 0.00117157, Final residual = 9.71936e-05, No Iterations 4
smoothSolver:  Solving for Uy, Initial residual = 0.00153177, Final residual = 0.000128033, No Iterations 4
GAMG:  Solving for p, Initial residual = 0.00022765, Final residual = 1.56832e-05, No Iterations 2
time step continuity errors : sum local = 4.48831e-07, global = 9.93494e-18, cumulative = -1.59043e-16
ExecutionTime = 1.39 s  ClockTime = 1 s

Time = 139

smoothSolver:  Solving for Ux, Initial residual = 0.00116114, Final residual = 9.63352e-05, No Iterations 4
smoothSolver:  Solving for Uy, Initial residual = 0.00151869, Final residual = 0.00012694, No Iterations 4
GAMG:  Solving for p, Initial residual = 0.000222836, Final residual = 1.5758e-05, No Iterations 2
time step continuity errors : sum local = 4.60018e-07, global = 1.77309e-18, cumulative = -1.5727e-16
ExecutionTime = 1.39 s  ClockTime = 1 s

Time = 140

smoothSolver:  Solving for Ux, Initial residual = 0.00115091, Final residual = 9.54923e-05, No Iterations 4
smoothSolver:  Solving for Uy, Initial residual = 0.00150586, Final residual = 0.000125868, No Iterations 4
GAMG:  Solving for p, Initial residual = 0.000222156, Final residual = 1.72319e-05, No Iterations 3
time step continuity errors : sum local = 4.51577e-07, global = 2.73565e-19, cumulative = -1.56996e-16
ExecutionTime = 1.41 s  ClockTime = 1 s

Time = 141

smoothSolver:  Solving for Ux, Initial residual = 0.00114082, Final residual = 9.4661e-05, No Iterations 4
smoothSolver:  Solving for Uy, Initial residual = 0.00149331, Final residual = 0.000124821, No Iterations 4
GAMG:  Solving for p, Initial residual = 0.000218334, Final residual = 1.53039e-05, No Iterations 2
time step continuity errors : sum local = 4.50837e-07, global = -9.59453e-18, cumulative = -1.66591e-16
ExecutionTime = 1.41 s  ClockTime = 1 s

Time = 142

smoothSolver:  Solving for Ux, Initial residual = 0.00113086, Final residual = 9.38408e-05, No Iterations 4
smoothSolver:  Solving for Uy, Initial residual = 0.0014808, Final residual = 0.000123776, No Iterations 4
GAMG:  Solving for p, Initial residual = 0.000216253, Final residual = 1.64363e-05, No Iterations 3
time step continuity errors : sum local = 4.26879e-07, global = -1.72022e-18, cumulative = -1.68311e-16
ExecutionTime = 1.43 s  ClockTime = 1 s

Time = 143

smoothSolver:  Solving for Ux, Initial residual = 0.00112103, Final residual = 9.30305e-05, No Iterations 4
smoothSolver:  Solving for Uy, Initial residual = 0.00146853, Final residual = 0.000122752, No Iterations 4
GAMG:  Solving for p, Initial residual = 0.000215678, Final residual = 1.47877e-05, No Iterations 2
time step continuity errors : sum local = 4.23969e-07, global = 5.38561e-19, cumulative = -1.67772e-16
ExecutionTime = 1.44 s  ClockTime = 1 s

Time = 144

smoothSolver:  Solving for Ux, Initial residual = 0.00111134, Final residual = 9.22326e-05, No Iterations 4
smoothSolver:  Solving for Uy, Initial residual = 0.00145636, Final residual = 0.000121735, No Iterations 4
GAMG:  Solving for p, Initial residual = 0.000211162, Final residual = 1.48694e-05, No Iterations 2
time step continuity errors : sum local = 4.34882e-07, global = 8.26999e-19, cumulative = -1.66945e-16
ExecutionTime = 1.44 s  ClockTime = 1 s

Time = 145

smoothSolver:  Solving for Ux, Initial residual = 0.00110182, Final residual = 9.14481e-05, No Iterations 4
smoothSolver:  Solving for Uy, Initial residual = 0.00144441, Final residual = 0.000120737, No Iterations 4
GAMG:  Solving for p, Initial residual = 0.000210598, Final residual = 1.63064e-05, No Iterations 3
time step continuity errors : sum local = 4.2766e-07, global = 1.14236e-17, cumulative = -1.55522e-16
ExecutionTime = 1.46 s  ClockTime = 1 s

Time = 146

smoothSolver:  Solving for Ux, Initial residual = 0.00109244, Final residual = 9.06736e-05, No Iterations 4
smoothSolver:  Solving for Uy, Initial residual = 0.00143273, Final residual = 0.000119762, No Iterations 4
GAMG:  Solving for p, Initial residual = 0.000207011, Final residual = 1.44533e-05, No Iterations 2
time step continuity errors : sum local = 4.2657e-07, global = -4.0507e-18, cumulative = -1.59572e-16
ExecutionTime = 1.46 s  ClockTime = 1 s

Time = 147

smoothSolver:  Solving for Ux, Initial residual = 0.00108315, Final residual = 8.99085e-05, No Iterations 4
smoothSolver:  Solving for Uy, Initial residual = 0.00142106, Final residual = 0.000118788, No Iterations 4
GAMG:  Solving for p, Initial residual = 0.000205101, Final residual = 1.55769e-05, No Iterations 3
time step continuity errors : sum local = 4.04817e-07, global = 1.51675e-17, cumulative = -1.44405e-16
ExecutionTime = 1.48 s  ClockTime = 1 s

Time = 148

smoothSolver:  Solving for Ux, Initial residual = 0.00107398, Final residual = 8.91521e-05, No Iterations 4
smoothSolver:  Solving for Uy, Initial residual = 0.00140962, Final residual = 0.000117833, No Iterations 4
GAMG:  Solving for p, Initial residual = 0.000204634, Final residual = 1.39742e-05, No Iterations 2
time step continuity errors : sum local = 4.01348e-07, global = -4.12915e-18, cumulative = -1.48534e-16
ExecutionTime = 1.49 s  ClockTime = 1 s

Time = 149

smoothSolver:  Solving for Ux, Initial residual = 0.00106494, Final residual = 8.84063e-05, No Iterations 4
smoothSolver:  Solving for Uy, Initial residual = 0.00139827, Final residual = 0.000116884, No Iterations 4
GAMG:  Solving for p, Initial residual = 0.0002004, Final residual = 1.40603e-05, No Iterations 2
time step continuity errors : sum local = 4.1196e-07, global = -8.27482e-18, cumulative = -1.56809e-16
ExecutionTime = 1.49 s  ClockTime = 1 s

Time = 150

smoothSolver:  Solving for Ux, Initial residual = 0.00105604, Final residual = 8.76727e-05, No Iterations 4
smoothSolver:  Solving for Uy, Initial residual = 0.00138712, Final residual = 0.000115952, No Iterations 4
GAMG:  Solving for p, Initial residual = 0.000199979, Final residual = 1.5458e-05, No Iterations 3
time step continuity errors : sum local = 4.05731e-07, global = 1.61889e-17, cumulative = -1.4062e-16
ExecutionTime = 1.51 s  ClockTime = 1 s

Time = 151

smoothSolver:  Solving for Ux, Initial residual = 0.00104726, Final residual = 8.69482e-05, No Iterations 4
smoothSolver:  Solving for Uy, Initial residual = 0.00137621, Final residual = 0.000115042, No Iterations 4
GAMG:  Solving for p, Initial residual = 0.000196658, Final residual = 1.36775e-05, No Iterations 2
time step continuity errors : sum local = 4.04406e-07, global = 1.42582e-17, cumulative = -1.26362e-16
ExecutionTime = 1.51 s  ClockTime = 1 s

Time = 152

smoothSolver:  Solving for Ux, Initial residual = 0.00103858, Final residual = 8.62329e-05, No Iterations 4
smoothSolver:  Solving for Uy, Initial residual = 0.00136531, Final residual = 0.000114131, No Iterations 4
GAMG:  Solving for p, Initial residual = 0.00019495, Final residual = 1.47882e-05, No Iterations 3
time step continuity errors : sum local = 3.84567e-07, global = 2.77921e-18, cumulative = -1.23583e-16
ExecutionTime = 1.52 s  ClockTime = 1 s

Time = 153

smoothSolver:  Solving for Ux, Initial residual = 0.00103003, Final residual = 8.55279e-05, No Iterations 4
smoothSolver:  Solving for Uy, Initial residual = 0.00135462, Final residual = 0.000113239, No Iterations 4
GAMG:  Solving for p, Initial residual = 0.000194603, Final residual = 1.32317e-05, No Iterations 2
time step continuity errors : sum local = 3.80669e-07, global = 8.24875e-18, cumulative = -1.15334e-16
ExecutionTime = 1.54 s  ClockTime = 1 s

Time = 154

smoothSolver:  Solving for Ux, Initial residual = 0.00102161, Final residual = 8.48336e-05, No Iterations 4
smoothSolver:  Solving for Uy, Initial residual = 0.001344, Final residual = 0.000112352, No Iterations 4
GAMG:  Solving for p, Initial residual = 0.000190649, Final residual = 1.33222e-05, No Iterations 2
time step continuity errors : sum local = 3.91014e-07, global = -6.12993e-18, cumulative = -1.21464e-16
ExecutionTime = 1.54 s  ClockTime = 1 s

Time = 155

smoothSolver:  Solving for Ux, Initial residual = 0.00101334, Final residual = 8.41516e-05, No Iterations 4
smoothSolver:  Solving for Uy, Initial residual = 0.00133357, Final residual = 0.00011148, No Iterations 4
GAMG:  Solving for p, Initial residual = 0.000190306, Final residual = 1.4678e-05, No Iterations 3
time step continuity errors : sum local = 3.8556e-07, global = -1.50998e-17, cumulative = -1.36564e-16
ExecutionTime = 1.56 s  ClockTime = 1 s

Time = 156

smoothSolver:  Solving for Ux, Initial residual = 0.00100518, Final residual = 8.34782e-05, No Iterations 4
smoothSolver:  Solving for Uy, Initial residual = 0.00132336, Final residual = 0.000110628, No Iterations 4
GAMG:  Solving for p, Initial residual = 0.000187162, Final residual = 1.29682e-05, No Iterations 2
time step continuity errors : sum local = 3.84114e-07, global = 1.88639e-18, cumulative = -1.34677e-16
ExecutionTime = 1.56 s  ClockTime = 1 s

Time = 157

smoothSolver:  Solving for Ux, Initial residual = 0.000997115, Final residual = 8.28131e-05, No Iterations 4
smoothSolver:  Solving for Uy, Initial residual = 0.00131316, Final residual = 0.000109775, No Iterations 4
GAMG:  Solving for p, Initial residual = 0.000185582, Final residual = 1.40622e-05, No Iterations 3
time step continuity errors : sum local = 3.65925e-07, global = -5.1769e-18, cumulative = -1.39854e-16
ExecutionTime = 1.57 s  ClockTime = 1 s

Time = 158

smoothSolver:  Solving for Ux, Initial residual = 0.000989148, Final residual = 8.21553e-05, No Iterations 4
smoothSolver:  Solving for Uy, Initial residual = 0.00130314, Final residual = 0.000108939, No Iterations 4
GAMG:  Solving for p, Initial residual = 0.000185303, Final residual = 1.25527e-05, No Iterations 2
time step continuity errors : sum local = 3.61733e-07, global = 1.0103e-17, cumulative = -1.29751e-16
ExecutionTime = 1.59 s  ClockTime = 1 s

Time = 159

smoothSolver:  Solving for Ux, Initial residual = 0.000981284, Final residual = 8.15066e-05, No Iterations 4
smoothSolver:  Solving for Uy, Initial residual = 0.00129319, Final residual = 0.000108107, No Iterations 4
GAMG:  Solving for p, Initial residual = 0.000181566, Final residual = 1.26465e-05, No Iterations 2
time step continuity errors : sum local = 3.71807e-07, global = 1.03839e-17, cumulative = -1.19367e-16
ExecutionTime = 1.59 s  ClockTime = 1 s

Time = 160

smoothSolver:  Solving for Ux, Initial residual = 0.000973548, Final residual = 8.08681e-05, No Iterations 4
smoothSolver:  Solving for Uy, Initial residual = 0.00128341, Final residual = 0.00010729, No Iterations 4
GAMG:  Solving for p, Initial residual = 0.000181296, Final residual = 1.39588e-05, No Iterations 3
time step continuity errors : sum local = 3.66956e-07, global = 1.40934e-17, cumulative = -1.05274e-16
ExecutionTime = 1.6 s  ClockTime = 1 s

Time = 161

smoothSolver:  Solving for Ux, Initial residual = 0.000965902, Final residual = 8.02367e-05, No Iterations 4
smoothSolver:  Solving for Uy, Initial residual = 0.00127383, Final residual = 0.000106491, No Iterations 4
GAMG:  Solving for p, Initial residual = 0.000178311, Final residual = 1.2318e-05, No Iterations 2
time step continuity errors : sum local = 3.65479e-07, global = 3.98014e-18, cumulative = -1.01294e-16
ExecutionTime = 1.62 s  ClockTime = 1 s

Time = 162

smoothSolver:  Solving for Ux, Initial residual = 0.000958334, Final residual = 7.9612e-05, No Iterations 4
smoothSolver:  Solving for Uy, Initial residual = 0.00126426, Final residual = 0.000105691, No Iterations 4
GAMG:  Solving for p, Initial residual = 0.000176848, Final residual = 1.33922e-05, No Iterations 3
time step continuity errors : sum local = 3.48714e-07, global = 5.09787e-18, cumulative = -9.61956e-17
ExecutionTime = 1.62 s  ClockTime = 1 s

Time = 163

smoothSolver:  Solving for Ux, Initial residual = 0.000950848, Final residual = 7.89934e-05, No Iterations 4
smoothSolver:  Solving for Uy, Initial residual = 0.00125487, Final residual = 0.000104906, No Iterations 4
GAMG:  Solving for p, Initial residual = 0.000176631, Final residual = 1.19296e-05, No Iterations 2
time step continuity errors : sum local = 3.44331e-07, global = -1.0093e-17, cumulative = -1.06289e-16
ExecutionTime = 1.63 s  ClockTime = 2 s

Time = 164

smoothSolver:  Solving for Ux, Initial residual = 0.000943451, Final residual = 7.8383e-05, No Iterations 4
smoothSolver:  Solving for Uy, Initial residual = 0.00124552, Final residual = 0.000104125, No Iterations 4
GAMG:  Solving for p, Initial residual = 0.000173128, Final residual = 1.20265e-05, No Iterations 2
time step continuity errors : sum local = 3.54154e-07, global = 1.23129e-17, cumulative = -9.39757e-17
ExecutionTime = 1.63 s  ClockTime = 2 s

Time = 165

smoothSolver:  Solving for Ux, Initial residual = 0.000936167, Final residual = 7.77817e-05, No Iterations 4
smoothSolver:  Solving for Uy, Initial residual = 0.00123633, Final residual = 0.000103357, No Iterations 4
GAMG:  Solving for p, Initial residual = 0.000172963, Final residual = 1.32937e-05, No Iterations 3
time step continuity errors : sum local = 3.49746e-07, global = -1.66674e-17, cumulative = -1.10643e-16
ExecutionTime = 1.65 s  ClockTime = 2 s

Time = 166

smoothSolver:  Solving for Ux, Initial residual = 0.000928973, Final residual = 7.71872e-05, No Iterations 4
smoothSolver:  Solving for Uy, Initial residual = 0.00122733, Final residual = 0.000102606, No Iterations 4
GAMG:  Solving for p, Initial residual = 0.000170147, Final residual = 1.17216e-05, No Iterations 2
time step continuity errors : sum local = 3.48355e-07, global = -3.48997e-18, cumulative = -1.14133e-16
ExecutionTime = 1.66 s  ClockTime = 2 s

Time = 167

smoothSolver:  Solving for Ux, Initial residual = 0.000921849, Final residual = 7.65989e-05, No Iterations 4
smoothSolver:  Solving for Uy, Initial residual = 0.00121833, Final residual = 0.000101854, No Iterations 4
GAMG:  Solving for p, Initial residual = 0.000168826, Final residual = 1.27721e-05, No Iterations 3
time step continuity errors : sum local = 3.32783e-07, global = 5.90743e-18, cumulative = -1.08226e-16
[...]
smoothSolver:  Solving for Uy, Initial residual = 1.12494e-05, Final residual = 9.40767e-07, No Iterations 4
GAMG:  Solving for p, Initial residual = 1.7638e-06, Final residual = 7.73648e-07, No Iterations 1
time step continuity errors : sum local = 2.04277e-08, global = 3.5484e-18, cumulative = -6.60545e-16
ExecutionTime = 14.48 s  ClockTime = 14 s

Time = 1514

smoothSolver:  Solving for Ux, Initial residual = 7.84425e-06, Final residual = 6.55895e-07, No Iterations 4
smoothSolver:  Solving for Uy, Initial residual = 1.12169e-05, Final residual = 9.38051e-07, No Iterations 4
GAMG:  Solving for p, Initial residual = 1.75893e-06, Final residual = 7.7294e-07, No Iterations 1
time step continuity errors : sum local = 2.04288e-08, global = -3.70196e-18, cumulative = -6.64247e-16
ExecutionTime = 14.5 s  ClockTime = 14 s

Time = 1515

smoothSolver:  Solving for Ux, Initial residual = 7.82156e-06, Final residual = 6.53997e-07, No Iterations 4
smoothSolver:  Solving for Uy, Initial residual = 1.11844e-05, Final residual = 9.35335e-07, No Iterations 4
GAMG:  Solving for p, Initial residual = 1.73102e-06, Final residual = 7.6234e-07, No Iterations 1
time step continuity errors : sum local = 2.01849e-08, global = -6.73349e-18, cumulative = -6.70981e-16
ExecutionTime = 14.5 s  ClockTime = 14 s

Time = 1516

smoothSolver:  Solving for Ux, Initial residual = 7.79903e-06, Final residual = 6.52113e-07, No Iterations 4
smoothSolver:  Solving for Uy, Initial residual = 1.1152e-05, Final residual = 9.32625e-07, No Iterations 4
GAMG:  Solving for p, Initial residual = 1.69597e-06, Final residual = 7.47995e-07, No Iterations 1
time step continuity errors : sum local = 1.98504e-08, global = 1.53463e-17, cumulative = -6.55635e-16
ExecutionTime = 14.51 s  ClockTime = 14 s

Time = 1517

smoothSolver:  Solving for Ux, Initial residual = 7.77663e-06, Final residual = 6.5024e-07, No Iterations 4
smoothSolver:  Solving for Uy, Initial residual = 1.11197e-05, Final residual = 9.29925e-07, No Iterations 4
GAMG:  Solving for p, Initial residual = 1.67064e-06, Final residual = 7.36482e-07, No Iterations 1
time step continuity errors : sum local = 1.95888e-08, global = 2.28788e-17, cumulative = -6.32756e-16
ExecutionTime = 14.51 s  ClockTime = 14 s

Time = 1518

smoothSolver:  Solving for Ux, Initial residual = 7.75431e-06, Final residual = 6.48373e-07, No Iterations 4
smoothSolver:  Solving for Uy, Initial residual = 1.10876e-05, Final residual = 9.27235e-07, No Iterations 4
GAMG:  Solving for p, Initial residual = 1.66268e-06, Final residual = 7.3137e-07, No Iterations 1
time step continuity errors : sum local = 1.94876e-08, global = -1.81358e-18, cumulative = -6.34569e-16
ExecutionTime = 14.52 s  ClockTime = 14 s

Time = 1519

smoothSolver:  Solving for Ux, Initial residual = 7.73201e-06, Final residual = 6.46508e-07, No Iterations 4
smoothSolver:  Solving for Uy, Initial residual = 1.10555e-05, Final residual = 9.24556e-07, No Iterations 4
GAMG:  Solving for p, Initial residual = 1.66848e-06, Final residual = 7.32216e-07, No Iterations 1
time step continuity errors : sum local = 1.95347e-08, global = -3.50792e-17, cumulative = -6.69649e-16
ExecutionTime = 14.52 s  ClockTime = 14 s

Time = 1520

smoothSolver:  Solving for Ux, Initial residual = 7.70973e-06, Final residual = 6.44644e-07, No Iterations 4
smoothSolver:  Solving for Uy, Initial residual = 1.10236e-05, Final residual = 9.21888e-07, No Iterations 4
GAMG:  Solving for p, Initial residual = 1.67822e-06, Final residual = 7.35908e-07, No Iterations 1
time step continuity errors : sum local = 1.96516e-08, global = 1.58091e-17, cumulative = -6.53839e-16
ExecutionTime = 14.54 s  ClockTime = 14 s

Time = 1521

smoothSolver:  Solving for Ux, Initial residual = 7.68747e-06, Final residual = 6.42782e-07, No Iterations 4
smoothSolver:  Solving for Uy, Initial residual = 1.09918e-05, Final residual = 9.19229e-07, No Iterations 4
GAMG:  Solving for p, Initial residual = 1.6834e-06, Final residual = 7.39092e-07, No Iterations 1
time step continuity errors : sum local = 1.97546e-08, global = -3.58144e-18, cumulative = -6.57421e-16
ExecutionTime = 14.56 s  ClockTime = 14 s

Time = 1522

smoothSolver:  Solving for Ux, Initial residual = 7.66525e-06, Final residual = 6.40923e-07, No Iterations 4
smoothSolver:  Solving for Uy, Initial residual = 1.09602e-05, Final residual = 9.1658e-07, No Iterations 4
GAMG:  Solving for p, Initial residual = 1.68104e-06, Final residual = 7.39679e-07, No Iterations 1
time step continuity errors : sum local = 1.97919e-08, global = -7.11902e-18, cumulative = -6.6454e-16
ExecutionTime = 14.56 s  ClockTime = 14 s

Time = 1523

smoothSolver:  Solving for Ux, Initial residual = 7.6431e-06, Final residual = 6.3907e-07, No Iterations 4
smoothSolver:  Solving for Uy, Initial residual = 1.09286e-05, Final residual = 9.13939e-07, No Iterations 4
GAMG:  Solving for p, Initial residual = 1.67299e-06, Final residual = 7.37348e-07, No Iterations 1
time step continuity errors : sum local = 1.9756e-08, global = 7.56838e-18, cumulative = -6.56972e-16
ExecutionTime = 14.57 s  ClockTime = 14 s

Time = 1524

smoothSolver:  Solving for Ux, Initial residual = 7.62103e-06, Final residual = 6.37224e-07, No Iterations 4
smoothSolver:  Solving for Uy, Initial residual = 1.08971e-05, Final residual = 9.11305e-07, No Iterations 4
GAMG:  Solving for p, Initial residual = 1.66284e-06, Final residual = 7.33069e-07, No Iterations 1
time step continuity errors : sum local = 1.96714e-08, global = -9.11792e-18, cumulative = -6.66089e-16
ExecutionTime = 14.57 s  ClockTime = 14 s

Time = 1525

smoothSolver:  Solving for Ux, Initial residual = 7.59905e-06, Final residual = 6.35385e-07, No Iterations 4
smoothSolver:  Solving for Uy, Initial residual = 1.08656e-05, Final residual = 9.08675e-07, No Iterations 4
GAMG:  Solving for p, Initial residual = 1.65355e-06, Final residual = 7.28247e-07, No Iterations 1
time step continuity errors : sum local = 1.95735e-08, global = 2.92096e-17, cumulative = -6.3688e-16
ExecutionTime = 14.59 s  ClockTime = 14 s

Time = 1526

smoothSolver:  Solving for Ux, Initial residual = 7.57715e-06, Final residual = 6.33553e-07, No Iterations 4
smoothSolver:  Solving for Uy, Initial residual = 1.08343e-05, Final residual = 9.0605e-07, No Iterations 4
GAMG:  Solving for p, Initial residual = 1.6463e-06, Final residual = 7.24075e-07, No Iterations 1
time step continuity errors : sum local = 1.9492e-08, global = -1.37095e-17, cumulative = -6.50589e-16
ExecutionTime = 14.59 s  ClockTime = 14 s

Time = 1527

smoothSolver:  Solving for Ux, Initial residual = 7.55534e-06, Final residual = 6.31728e-07, No Iterations 4
smoothSolver:  Solving for Uy, Initial residual = 1.08029e-05, Final residual = 9.03431e-07, No Iterations 4
GAMG:  Solving for p, Initial residual = 1.64087e-06, Final residual = 7.21141e-07, No Iterations 1
time step continuity errors : sum local = 1.94415e-08, global = 1.30499e-18, cumulative = -6.49284e-16
ExecutionTime = 14.6 s  ClockTime = 15 s

Time = 1528

smoothSolver:  Solving for Ux, Initial residual = 7.53361e-06, Final residual = 6.29909e-07, No Iterations 4
smoothSolver:  Solving for Uy, Initial residual = 1.07717e-05, Final residual = 9.00819e-07, No Iterations 4
GAMG:  Solving for p, Initial residual = 1.63681e-06, Final residual = 7.19425e-07, No Iterations 1
time step continuity errors : sum local = 1.94215e-08, global = 2.74373e-18, cumulative = -6.46541e-16
ExecutionTime = 14.6 s  ClockTime = 15 s

Time = 1529

smoothSolver:  Solving for Ux, Initial residual = 7.51193e-06, Final residual = 6.28094e-07, No Iterations 4
smoothSolver:  Solving for Uy, Initial residual = 1.07406e-05, Final residual = 8.98217e-07, No Iterations 4
GAMG:  Solving for p, Initial residual = 1.63381e-06, Final residual = 7.18457e-07, No Iterations 1
time step continuity errors : sum local = 1.94197e-08, global = -1.5842e-17, cumulative = -6.62383e-16
ExecutionTime = 14.62 s  ClockTime = 15 s

Time = 1530

smoothSolver:  Solving for Ux, Initial residual = 7.4903e-06, Final residual = 6.26284e-07, No Iterations 4
smoothSolver:  Solving for Uy, Initial residual = 1.07096e-05, Final residual = 8.95624e-07, No Iterations 4
GAMG:  Solving for p, Initial residual = 1.63122e-06, Final residual = 7.17557e-07, No Iterations 1
time step continuity errors : sum local = 1.94186e-08, global = -2.67871e-17, cumulative = -6.8917e-16
ExecutionTime = 14.62 s  ClockTime = 15 s

Time = 1531

smoothSolver:  Solving for Ux, Initial residual = 7.46871e-06, Final residual = 6.24477e-07, No Iterations 4
smoothSolver:  Solving for Uy, Initial residual = 1.06787e-05, Final residual = 8.93041e-07, No Iterations 4
GAMG:  Solving for p, Initial residual = 1.62802e-06, Final residual = 7.16081e-07, No Iterations 1
time step continuity errors : sum local = 1.94014e-08, global = -9.32898e-18, cumulative = -6.98499e-16
ExecutionTime = 14.63 s  ClockTime = 15 s

Time = 1532

smoothSolver:  Solving for Ux, Initial residual = 7.44717e-06, Final residual = 6.22673e-07, No Iterations 4
smoothSolver:  Solving for Uy, Initial residual = 1.06479e-05, Final residual = 8.90467e-07, No Iterations 4
GAMG:  Solving for p, Initial residual = 1.62324e-06, Final residual = 7.13737e-07, No Iterations 1
time step continuity errors : sum local = 1.93601e-08, global = -1.25093e-17, cumulative = -7.11008e-16
ExecutionTime = 14.63 s  ClockTime = 15 s

Time = 1533

smoothSolver:  Solving for Ux, Initial residual = 7.42568e-06, Final residual = 6.20875e-07, No Iterations 4
smoothSolver:  Solving for Uy, Initial residual = 1.06172e-05, Final residual = 8.879e-07, No Iterations 4
GAMG:  Solving for p, Initial residual = 1.61676e-06, Final residual = 7.10709e-07, No Iterations 1
time step continuity errors : sum local = 1.92993e-08, global = 6.09031e-18, cumulative = -7.04918e-16
ExecutionTime = 14.65 s  ClockTime = 15 s

Time = 1534

smoothSolver:  Solving for Ux, Initial residual = 7.40427e-06, Final residual = 6.19082e-07, No Iterations 4
smoothSolver:  Solving for Uy, Initial residual = 1.05866e-05, Final residual = 8.85339e-07, No Iterations 4
GAMG:  Solving for p, Initial residual = 1.60953e-06, Final residual = 7.0756e-07, No Iterations 1
time step continuity errors : sum local = 1.92332e-08, global = -4.64479e-19, cumulative = -7.05382e-16
ExecutionTime = 14.65 s  ClockTime = 15 s

Time = 1535

smoothSolver:  Solving for Ux, Initial residual = 7.38293e-06, Final residual = 6.17296e-07, No Iterations 4
smoothSolver:  Solving for Uy, Initial residual = 1.05561e-05, Final residual = 8.82785e-07, No Iterations 4
GAMG:  Solving for p, Initial residual = 1.60306e-06, Final residual = 7.04891e-07, No Iterations 1
time step continuity errors : sum local = 1.91779e-08, global = -1.61334e-17, cumulative = -7.21516e-16
ExecutionTime = 14.67 s  ClockTime = 15 s

Time = 1536

smoothSolver:  Solving for Ux, Initial residual = 7.36168e-06, Final residual = 6.15516e-07, No Iterations 4
smoothSolver:  Solving for Uy, Initial residual = 1.05256e-05, Final residual = 8.80237e-07, No Iterations 4
GAMG:  Solving for p, Initial residual = 1.59831e-06, Final residual = 7.02981e-07, No Iterations 1
time step continuity errors : sum local = 1.91417e-08, global = -9.90716e-18, cumulative = -7.31423e-16
ExecutionTime = 14.68 s  ClockTime = 15 s

Time = 1537

smoothSolver:  Solving for Ux, Initial residual = 7.3405e-06, Final residual = 6.13743e-07, No Iterations 4
smoothSolver:  Solving for Uy, Initial residual = 1.04952e-05, Final residual = 8.77695e-07, No Iterations 4
GAMG:  Solving for p, Initial residual = 1.59516e-06, Final residual = 7.01637e-07, No Iterations 1
time step continuity errors : sum local = 1.91211e-08, global = 1.6597e-17, cumulative = -7.14826e-16
ExecutionTime = 14.68 s  ClockTime = 15 s

Time = 1538

smoothSolver:  Solving for Ux, Initial residual = 7.31938e-06, Final residual = 6.11975e-07, No Iterations 4
smoothSolver:  Solving for Uy, Initial residual = 1.04649e-05, Final residual = 8.75159e-07, No Iterations 4
GAMG:  Solving for p, Initial residual = 1.59254e-06, Final residual = 7.0034e-07, No Iterations 1
time step continuity errors : sum local = 1.91036e-08, global = -1.00494e-18, cumulative = -7.15831e-16
ExecutionTime = 14.7 s  ClockTime = 15 s

Time = 1539

smoothSolver:  Solving for Ux, Initial residual = 7.29832e-06, Final residual = 6.10211e-07, No Iterations 4
smoothSolver:  Solving for Uy, Initial residual = 1.04346e-05, Final residual = 8.72632e-07, No Iterations 4
GAMG:  Solving for p, Initial residual = 1.5891e-06, Final residual = 6.98586e-07, No Iterations 1
time step continuity errors : sum local = 1.90767e-08, global = 9.1404e-18, cumulative = -7.0669e-16
ExecutionTime = 14.7 s  ClockTime = 15 s

Time = 1540

smoothSolver:  Solving for Ux, Initial residual = 7.27731e-06, Final residual = 6.08452e-07, No Iterations 4
smoothSolver:  Solving for Uy, Initial residual = 1.04045e-05, Final residual = 8.70112e-07, No Iterations 4
GAMG:  Solving for p, Initial residual = 1.58415e-06, Final residual = 6.96192e-07, No Iterations 1
time step continuity errors : sum local = 1.9035e-08, global = -4.50098e-18, cumulative = -7.11191e-16
ExecutionTime = 14.71 s  ClockTime = 15 s

Time = 1541

smoothSolver:  Solving for Ux, Initial residual = 7.25635e-06, Final residual = 6.06697e-07, No Iterations 4
smoothSolver:  Solving for Uy, Initial residual = 1.03745e-05, Final residual = 8.67602e-07, No Iterations 4
GAMG:  Solving for p, Initial residual = 1.57797e-06, Final residual = 6.93366e-07, No Iterations 1
time step continuity errors : sum local = 1.89822e-08, global = -3.98474e-18, cumulative = -7.15176e-16
ExecutionTime = 14.71 s  ClockTime = 15 s

Time = 1542

smoothSolver:  Solving for Ux, Initial residual = 7.23544e-06, Final residual = 6.04946e-07, No Iterations 4
smoothSolver:  Solving for Uy, Initial residual = 1.03446e-05, Final residual = 8.651e-07, No Iterations 4
GAMG:  Solving for p, Initial residual = 1.57157e-06, Final residual = 6.90528e-07, No Iterations 1
time step continuity errors : sum local = 1.89273e-08, global = 1.58487e-17, cumulative = -6.99327e-16
ExecutionTime = 14.73 s  ClockTime = 15 s

Time = 1543

smoothSolver:  Solving for Ux, Initial residual = 7.21459e-06, Final residual = 6.032e-07, No Iterations 4
smoothSolver:  Solving for Uy, Initial residual = 1.03148e-05, Final residual = 8.62607e-07, No Iterations 4
GAMG:  Solving for p, Initial residual = 1.56592e-06, Final residual = 6.88048e-07, No Iterations 1
time step continuity errors : sum local = 1.88784e-08, global = 2.11657e-17, cumulative = -6.78162e-16
ExecutionTime = 14.73 s  ClockTime = 15 s

Time = 1544

smoothSolver:  Solving for Ux, Initial residual = 7.19381e-06, Final residual = 6.0146e-07, No Iterations 4
smoothSolver:  Solving for Uy, Initial residual = 1.0285e-05, Final residual = 8.6012e-07, No Iterations 4
GAMG:  Solving for p, Initial residual = 1.56143e-06, Final residual = 6.86061e-07, No Iterations 1
time step continuity errors : sum local = 1.88386e-08, global = 6.27601e-18, cumulative = -6.71886e-16
ExecutionTime = 14.74 s  ClockTime = 15 s

Time = 1545

smoothSolver:  Solving for Ux, Initial residual = 7.17309e-06, Final residual = 5.99725e-07, No Iterations 4
smoothSolver:  Solving for Uy, Initial residual = 1.02554e-05, Final residual = 8.5764e-07, No Iterations 4
GAMG:  Solving for p, Initial residual = 1.55779e-06, Final residual = 6.84421e-07, No Iterations 1
time step continuity errors : sum local = 1.88048e-08, global = 8.52543e-18, cumulative = -6.6336e-16
ExecutionTime = 14.74 s  ClockTime = 15 s

Time = 1546

smoothSolver:  Solving for Ux, Initial residual = 7.15245e-06, Final residual = 5.97995e-07, No Iterations 4
smoothSolver:  Solving for Uy, Initial residual = 1.02258e-05, Final residual = 8.55165e-07, No Iterations 4
GAMG:  Solving for p, Initial residual = 1.55428e-06, Final residual = 6.82835e-07, No Iterations 1
time step continuity errors : sum local = 1.87708e-08, global = 1.76909e-19, cumulative = -6.63183e-16
ExecutionTime = 14.76 s  ClockTime = 15 s

Time = 1547

smoothSolver:  Solving for Ux, Initial residual = 7.13186e-06, Final residual = 5.96272e-07, No Iterations 4
smoothSolver:  Solving for Uy, Initial residual = 1.01963e-05, Final residual = 8.52696e-07, No Iterations 4
GAMG:  Solving for p, Initial residual = 1.5503e-06, Final residual = 6.8104e-07, No Iterations 1
time step continuity errors : sum local = 1.87316e-08, global = 6.1914e-18, cumulative = -6.56992e-16
ExecutionTime = 14.76 s  ClockTime = 15 s

Time = 1548

smoothSolver:  Solving for Ux, Initial residual = 7.11134e-06, Final residual = 5.94554e-07, No Iterations 4
smoothSolver:  Solving for Uy, Initial residual = 1.01668e-05, Final residual = 8.50234e-07, No Iterations 4
GAMG:  Solving for p, Initial residual = 1.54558e-06, Final residual = 6.78925e-07, No Iterations 1
time step continuity errors : sum local = 1.86855e-08, global = -1.81753e-18, cumulative = -6.58809e-16
ExecutionTime = 14.77 s  ClockTime = 15 s

Time = 1549

smoothSolver:  Solving for Ux, Initial residual = 7.09088e-06, Final residual = 5.92842e-07, No Iterations 4
smoothSolver:  Solving for Uy, Initial residual = 1.01375e-05, Final residual = 8.4778e-07, No Iterations 4
GAMG:  Solving for p, Initial residual = 1.54031e-06, Final residual = 7.06111e-07, No Iterations 1
time step continuity errors : sum local = 1.78664e-08, global = -1.19317e-17, cumulative = -6.70741e-16
ExecutionTime = 14.79 s  ClockTime = 15 s

Time = 1550

smoothSolver:  Solving for Ux, Initial residual = 7.07005e-06, Final residual = 5.91088e-07, No Iterations 4
smoothSolver:  Solving for Uy, Initial residual = 1.01092e-05, Final residual = 8.45409e-07, No Iterations 4
GAMG:  Solving for p, Initial residual = 1.59904e-06, Final residual = 6.96067e-07, No Iterations 1
time step continuity errors : sum local = 1.81642e-08, global = 1.38185e-17, cumulative = -6.56923e-16
ExecutionTime = 14.79 s  ClockTime = 15 s

Time = 1551

smoothSolver:  Solving for Ux, Initial residual = 7.04976e-06, Final residual = 5.89397e-07, No Iterations 4
smoothSolver:  Solving for Uy, Initial residual = 1.008e-05, Final residual = 8.42968e-07, No Iterations 4
GAMG:  Solving for p, Initial residual = 1.61983e-06, Final residual = 7.13667e-07, No Iterations 1
time step continuity errors : sum local = 1.83132e-08, global = 2.74971e-19, cumulative = -6.56648e-16
ExecutionTime = 14.81 s  ClockTime = 15 s

Time = 1552

smoothSolver:  Solving for Ux, Initial residual = 7.02963e-06, Final residual = 5.87717e-07, No Iterations 4
smoothSolver:  Solving for Uy, Initial residual = 1.00507e-05, Final residual = 8.40523e-07, No Iterations 4
GAMG:  Solving for p, Initial residual = 1.63129e-06, Final residual = 7.16522e-07, No Iterations 1
time step continuity errors : sum local = 1.83046e-08, global = 5.98892e-18, cumulative = -6.50659e-16
ExecutionTime = 14.81 s  ClockTime = 15 s

Time = 1553

smoothSolver:  Solving for Ux, Initial residual = 7.0095e-06, Final residual = 5.86035e-07, No Iterations 4
smoothSolver:  Solving for Uy, Initial residual = 1.00214e-05, Final residual = 8.38069e-07, No Iterations 4
GAMG:  Solving for p, Initial residual = 1.62735e-06, Final residual = 7.04992e-07, No Iterations 1
time step continuity errors : sum local = 1.80719e-08, global = -1.18192e-17, cumulative = -6.62478e-16
ExecutionTime = 14.82 s  ClockTime = 15 s

Time = 1554

smoothSolver:  Solving for Ux, Initial residual = 6.98936e-06, Final residual = 5.84349e-07, No Iterations 4
smoothSolver:  Solving for Uy, Initial residual = 9.99204e-06, Final residual = 8.35614e-07, No Iterations 4
GAMG:  Solving for p, Initial residual = 1.58527e-06, Final residual = 6.82923e-07, No Iterations 1
time step continuity errors : sum local = 1.76378e-08, global = -8.54189e-18, cumulative = -6.7102e-16
ExecutionTime = 14.82 s  ClockTime = 15 s


SIMPLE solution converged in 1554 iterations

End

